* NGSPICE file created from serial_ports.ext - technology: gf180mcuD

* Black-box entry subcircuit for gf180mcu_fd_sc_mcu7t5v0__fillcap_16 abstract view
.subckt gf180mcu_fd_sc_mcu7t5v0__fillcap_16 VDD VNW VPW VSS
.ends

* Black-box entry subcircuit for gf180mcu_fd_sc_mcu7t5v0__fillcap_4 abstract view
.subckt gf180mcu_fd_sc_mcu7t5v0__fillcap_4 VDD VNW VPW VSS
.ends

* Black-box entry subcircuit for gf180mcu_fd_sc_mcu7t5v0__fillcap_8 abstract view
.subckt gf180mcu_fd_sc_mcu7t5v0__fillcap_8 VDD VNW VPW VSS
.ends

* Black-box entry subcircuit for gf180mcu_fd_sc_mcu7t5v0__fill_2 abstract view
.subckt gf180mcu_fd_sc_mcu7t5v0__fill_2 VDD VNW VPW VSS
.ends

* Black-box entry subcircuit for gf180mcu_fd_sc_mcu7t5v0__fill_1 abstract view
.subckt gf180mcu_fd_sc_mcu7t5v0__fill_1 VDD VNW VPW VSS
.ends

* Black-box entry subcircuit for gf180mcu_fd_sc_mcu7t5v0__antenna abstract view
.subckt gf180mcu_fd_sc_mcu7t5v0__antenna I VDD VNW VPW VSS
.ends

* Black-box entry subcircuit for gf180mcu_fd_sc_mcu7t5v0__filltie abstract view
.subckt gf180mcu_fd_sc_mcu7t5v0__filltie VDD VSS
.ends

* Black-box entry subcircuit for gf180mcu_fd_sc_mcu7t5v0__nor2_1 abstract view
.subckt gf180mcu_fd_sc_mcu7t5v0__nor2_1 A1 A2 ZN VDD VNW VPW VSS
.ends

* Black-box entry subcircuit for gf180mcu_fd_sc_mcu7t5v0__fillcap_64 abstract view
.subckt gf180mcu_fd_sc_mcu7t5v0__fillcap_64 VDD VNW VPW VSS
.ends

* Black-box entry subcircuit for gf180mcu_fd_sc_mcu7t5v0__aoi22_1 abstract view
.subckt gf180mcu_fd_sc_mcu7t5v0__aoi22_1 A1 A2 B1 B2 ZN VDD VNW VPW VSS
.ends

* Black-box entry subcircuit for gf180mcu_fd_sc_mcu7t5v0__nand2_1 abstract view
.subckt gf180mcu_fd_sc_mcu7t5v0__nand2_1 A1 A2 ZN VDD VNW VPW VSS
.ends

* Black-box entry subcircuit for gf180mcu_fd_sc_mcu7t5v0__xor2_1 abstract view
.subckt gf180mcu_fd_sc_mcu7t5v0__xor2_1 A1 A2 Z VDD VNW VPW VSS
.ends

* Black-box entry subcircuit for gf180mcu_fd_sc_mcu7t5v0__clkinv_1 abstract view
.subckt gf180mcu_fd_sc_mcu7t5v0__clkinv_1 I ZN VDD VNW VPW VSS
.ends

* Black-box entry subcircuit for gf180mcu_fd_sc_mcu7t5v0__fillcap_32 abstract view
.subckt gf180mcu_fd_sc_mcu7t5v0__fillcap_32 VDD VNW VPW VSS
.ends

* Black-box entry subcircuit for gf180mcu_fd_sc_mcu7t5v0__oai21_1 abstract view
.subckt gf180mcu_fd_sc_mcu7t5v0__oai21_1 A1 A2 B ZN VDD VNW VPW VSS
.ends

* Black-box entry subcircuit for gf180mcu_fd_sc_mcu7t5v0__inv_1 abstract view
.subckt gf180mcu_fd_sc_mcu7t5v0__inv_1 I ZN VDD VNW VPW VSS
.ends

* Black-box entry subcircuit for gf180mcu_fd_sc_mcu7t5v0__buf_1 abstract view
.subckt gf180mcu_fd_sc_mcu7t5v0__buf_1 I Z VDD VNW VPW VSS
.ends

* Black-box entry subcircuit for gf180mcu_fd_sc_mcu7t5v0__nor3_2 abstract view
.subckt gf180mcu_fd_sc_mcu7t5v0__nor3_2 A1 A2 A3 ZN VDD VNW VPW VSS
.ends

* Black-box entry subcircuit for gf180mcu_fd_sc_mcu7t5v0__dffq_1 abstract view
.subckt gf180mcu_fd_sc_mcu7t5v0__dffq_1 D CLK Q VDD VNW VPW VSS
.ends

* Black-box entry subcircuit for gf180mcu_fd_sc_mcu7t5v0__nand3_1 abstract view
.subckt gf180mcu_fd_sc_mcu7t5v0__nand3_1 A1 A2 A3 ZN VDD VNW VPW VSS
.ends

* Black-box entry subcircuit for gf180mcu_fd_sc_mcu7t5v0__buf_8 abstract view
.subckt gf180mcu_fd_sc_mcu7t5v0__buf_8 I Z VDD VNW VPW VSS
.ends

* Black-box entry subcircuit for gf180mcu_fd_sc_mcu7t5v0__aoi211_1 abstract view
.subckt gf180mcu_fd_sc_mcu7t5v0__aoi211_1 A1 A2 B C ZN VDD VNW VPW VSS
.ends

* Black-box entry subcircuit for gf180mcu_fd_sc_mcu7t5v0__and2_1 abstract view
.subckt gf180mcu_fd_sc_mcu7t5v0__and2_1 A1 A2 Z VDD VNW VPW VSS
.ends

* Black-box entry subcircuit for gf180mcu_fd_sc_mcu7t5v0__nor3_1 abstract view
.subckt gf180mcu_fd_sc_mcu7t5v0__nor3_1 A1 A2 A3 ZN VDD VNW VPW VSS
.ends

* Black-box entry subcircuit for gf180mcu_fd_sc_mcu7t5v0__aoi221_1 abstract view
.subckt gf180mcu_fd_sc_mcu7t5v0__aoi221_1 A1 A2 B1 B2 C ZN VDD VNW VPW VSS
.ends

* Black-box entry subcircuit for gf180mcu_fd_sc_mcu7t5v0__clkbuf_8 abstract view
.subckt gf180mcu_fd_sc_mcu7t5v0__clkbuf_8 I Z VDD VNW VPW VSS
.ends

* Black-box entry subcircuit for gf180mcu_fd_sc_mcu7t5v0__clkbuf_2 abstract view
.subckt gf180mcu_fd_sc_mcu7t5v0__clkbuf_2 I Z VDD VNW VPW VSS
.ends

* Black-box entry subcircuit for gf180mcu_fd_sc_mcu7t5v0__buf_2 abstract view
.subckt gf180mcu_fd_sc_mcu7t5v0__buf_2 I Z VDD VNW VPW VSS
.ends

* Black-box entry subcircuit for gf180mcu_fd_sc_mcu7t5v0__endcap abstract view
.subckt gf180mcu_fd_sc_mcu7t5v0__endcap VDD VSS
.ends

* Black-box entry subcircuit for gf180mcu_fd_sc_mcu7t5v0__aoi21_1 abstract view
.subckt gf180mcu_fd_sc_mcu7t5v0__aoi21_1 A1 A2 B ZN VDD VNW VPW VSS
.ends

* Black-box entry subcircuit for gf180mcu_fd_sc_mcu7t5v0__nand4_1 abstract view
.subckt gf180mcu_fd_sc_mcu7t5v0__nand4_1 A1 A2 A3 A4 ZN VDD VNW VPW VSS
.ends

* Black-box entry subcircuit for gf180mcu_fd_sc_mcu7t5v0__clkbuf_1 abstract view
.subckt gf180mcu_fd_sc_mcu7t5v0__clkbuf_1 I Z VDD VNW VPW VSS
.ends

* Black-box entry subcircuit for gf180mcu_fd_sc_mcu7t5v0__or2_1 abstract view
.subckt gf180mcu_fd_sc_mcu7t5v0__or2_1 A1 A2 Z VDD VNW VPW VSS
.ends

* Black-box entry subcircuit for gf180mcu_fd_sc_mcu7t5v0__oai31_1 abstract view
.subckt gf180mcu_fd_sc_mcu7t5v0__oai31_1 A1 A2 A3 B ZN VDD VNW VPW VSS
.ends

* Black-box entry subcircuit for gf180mcu_fd_sc_mcu7t5v0__or3_1 abstract view
.subckt gf180mcu_fd_sc_mcu7t5v0__or3_1 A1 A2 A3 Z VDD VNW VPW VSS
.ends

* Black-box entry subcircuit for gf180mcu_fd_sc_mcu7t5v0__or4_1 abstract view
.subckt gf180mcu_fd_sc_mcu7t5v0__or4_1 A1 A2 A3 A4 Z VDD VNW VPW VSS
.ends

* Black-box entry subcircuit for gf180mcu_fd_sc_mcu7t5v0__aoi22_2 abstract view
.subckt gf180mcu_fd_sc_mcu7t5v0__aoi22_2 A1 A2 B1 B2 ZN VDD VNW VPW VSS
.ends

* Black-box entry subcircuit for gf180mcu_fd_sc_mcu7t5v0__xnor2_1 abstract view
.subckt gf180mcu_fd_sc_mcu7t5v0__xnor2_1 A1 A2 ZN VDD VNW VPW VSS
.ends

* Black-box entry subcircuit for gf180mcu_fd_sc_mcu7t5v0__nor4_2 abstract view
.subckt gf180mcu_fd_sc_mcu7t5v0__nor4_2 A1 A2 A3 A4 ZN VDD VNW VPW VSS
.ends

* Black-box entry subcircuit for gf180mcu_fd_sc_mcu7t5v0__oai211_1 abstract view
.subckt gf180mcu_fd_sc_mcu7t5v0__oai211_1 A1 A2 B C ZN VDD VNW VPW VSS
.ends

* Black-box entry subcircuit for gf180mcu_fd_sc_mcu7t5v0__nor4_4 abstract view
.subckt gf180mcu_fd_sc_mcu7t5v0__nor4_4 A1 A2 A3 A4 ZN VDD VNW VPW VSS
.ends

* Black-box entry subcircuit for gf180mcu_fd_sc_mcu7t5v0__dffq_2 abstract view
.subckt gf180mcu_fd_sc_mcu7t5v0__dffq_2 D CLK Q VDD VNW VPW VSS
.ends

* Black-box entry subcircuit for gf180mcu_fd_sc_mcu7t5v0__nand4_4 abstract view
.subckt gf180mcu_fd_sc_mcu7t5v0__nand4_4 A1 A2 A3 A4 ZN VDD VNW VPW VSS
.ends

* Black-box entry subcircuit for gf180mcu_fd_sc_mcu7t5v0__nand4_2 abstract view
.subckt gf180mcu_fd_sc_mcu7t5v0__nand4_2 A1 A2 A3 A4 ZN VDD VNW VPW VSS
.ends

* Black-box entry subcircuit for gf180mcu_fd_sc_mcu7t5v0__nand2_2 abstract view
.subckt gf180mcu_fd_sc_mcu7t5v0__nand2_2 A1 A2 ZN VDD VNW VPW VSS
.ends

* Black-box entry subcircuit for gf180mcu_fd_sc_mcu7t5v0__nor3_4 abstract view
.subckt gf180mcu_fd_sc_mcu7t5v0__nor3_4 A1 A2 A3 ZN VDD VNW VPW VSS
.ends

* Black-box entry subcircuit for gf180mcu_fd_sc_mcu7t5v0__clkinv_2 abstract view
.subckt gf180mcu_fd_sc_mcu7t5v0__clkinv_2 I ZN VDD VNW VPW VSS
.ends

* Black-box entry subcircuit for gf180mcu_fd_sc_mcu7t5v0__aoi222_2 abstract view
.subckt gf180mcu_fd_sc_mcu7t5v0__aoi222_2 A1 A2 B1 B2 C1 C2 ZN VDD VNW VPW VSS
.ends

* Black-box entry subcircuit for gf180mcu_fd_sc_mcu7t5v0__tiel abstract view
.subckt gf180mcu_fd_sc_mcu7t5v0__tiel ZN VDD VNW VPW VSS
.ends

* Black-box entry subcircuit for gf180mcu_fd_sc_mcu7t5v0__mux2_2 abstract view
.subckt gf180mcu_fd_sc_mcu7t5v0__mux2_2 I0 I1 S Z VDD VNW VPW VSS
.ends

* Black-box entry subcircuit for gf180mcu_fd_sc_mcu7t5v0__tieh abstract view
.subckt gf180mcu_fd_sc_mcu7t5v0__tieh Z VDD VNW VPW VSS
.ends

* Black-box entry subcircuit for gf180mcu_fd_sc_mcu7t5v0__and3_1 abstract view
.subckt gf180mcu_fd_sc_mcu7t5v0__and3_1 A1 A2 A3 Z VDD VNW VPW VSS
.ends

* Black-box entry subcircuit for gf180mcu_fd_sc_mcu7t5v0__oai221_4 abstract view
.subckt gf180mcu_fd_sc_mcu7t5v0__oai221_4 A1 A2 B1 B2 C ZN VDD VNW VPW VSS
.ends

* Black-box entry subcircuit for gf180mcu_fd_sc_mcu7t5v0__oai22_1 abstract view
.subckt gf180mcu_fd_sc_mcu7t5v0__oai22_1 A1 A2 B1 B2 ZN VDD VNW VPW VSS
.ends

* Black-box entry subcircuit for gf180mcu_fd_sc_mcu7t5v0__oai21_2 abstract view
.subckt gf180mcu_fd_sc_mcu7t5v0__oai21_2 A1 A2 B ZN VDD VNW VPW VSS
.ends

* Black-box entry subcircuit for gf180mcu_fd_sc_mcu7t5v0__nor2_2 abstract view
.subckt gf180mcu_fd_sc_mcu7t5v0__nor2_2 A1 A2 ZN VDD VNW VPW VSS
.ends

* Black-box entry subcircuit for gf180mcu_fd_sc_mcu7t5v0__nand3_2 abstract view
.subckt gf180mcu_fd_sc_mcu7t5v0__nand3_2 A1 A2 A3 ZN VDD VNW VPW VSS
.ends

* Black-box entry subcircuit for gf180mcu_fd_sc_mcu7t5v0__aoi222_4 abstract view
.subckt gf180mcu_fd_sc_mcu7t5v0__aoi222_4 A1 A2 B1 B2 C1 C2 ZN VDD VNW VPW VSS
.ends

* Black-box entry subcircuit for gf180mcu_fd_sc_mcu7t5v0__and4_1 abstract view
.subckt gf180mcu_fd_sc_mcu7t5v0__and4_1 A1 A2 A3 A4 Z VDD VNW VPW VSS
.ends

* Black-box entry subcircuit for gf180mcu_fd_sc_mcu7t5v0__nor4_1 abstract view
.subckt gf180mcu_fd_sc_mcu7t5v0__nor4_1 A1 A2 A3 A4 ZN VDD VNW VPW VSS
.ends

* Black-box entry subcircuit for gf180mcu_fd_sc_mcu7t5v0__aoi221_4 abstract view
.subckt gf180mcu_fd_sc_mcu7t5v0__aoi221_4 A1 A2 B1 B2 C ZN VDD VNW VPW VSS
.ends

* Black-box entry subcircuit for gf180mcu_fd_sc_mcu7t5v0__clkbuf_16 abstract view
.subckt gf180mcu_fd_sc_mcu7t5v0__clkbuf_16 I Z VDD VNW VPW VSS
.ends

* Black-box entry subcircuit for gf180mcu_fd_sc_mcu7t5v0__aoi21_2 abstract view
.subckt gf180mcu_fd_sc_mcu7t5v0__aoi21_2 A1 A2 B ZN VDD VNW VPW VSS
.ends

* Black-box entry subcircuit for gf180mcu_fd_sc_mcu7t5v0__clkbuf_3 abstract view
.subckt gf180mcu_fd_sc_mcu7t5v0__clkbuf_3 I Z VDD VNW VPW VSS
.ends

.subckt serial_ports RXD TXD addr[0] addr[1] addr[2] bus_cyc bus_we data_in[0] data_in[1]
+ data_in[2] data_in[3] data_in[4] data_in[5] data_in[6] data_in[7] data_out[0] data_out[1]
+ data_out[2] data_out[3] data_out[4] data_out[5] data_out[6] data_out[7] io_in io_oeb[0]
+ io_oeb[1] io_oeb[2] io_out[0] io_out[1] irq3 rst vdd vss wb_clk_i io_out[2]
XFILLER_0_9_400 vdd vdd vss vss gf180mcu_fd_sc_mcu7t5v0__fillcap_16
XFILLER_0_9_422 vdd vdd vss vss gf180mcu_fd_sc_mcu7t5v0__fillcap_4
XFILLER_0_32_247 vdd vdd vss vss gf180mcu_fd_sc_mcu7t5v0__fillcap_8
XFILLER_0_32_225 vdd vdd vss vss gf180mcu_fd_sc_mcu7t5v0__fill_2
XFILLER_0_20_409 vdd vdd vss vss gf180mcu_fd_sc_mcu7t5v0__fill_1
XFILLER_0_4_193 vdd vdd vss vss gf180mcu_fd_sc_mcu7t5v0__fillcap_4
XFILLER_0_7_92 vdd vdd vss vss gf180mcu_fd_sc_mcu7t5v0__fill_2
XANTENNA__1724__CLK clknet_4_12_0_wb_clk_i vdd vdd vss vss gf180mcu_fd_sc_mcu7t5v0__antenna
XTAP_TAPCELL_ROW_43_415 vdd vss gf180mcu_fd_sc_mcu7t5v0__filltie
XFILLER_0_48_37 vdd vdd vss vss gf180mcu_fd_sc_mcu7t5v0__fillcap_8
X_1270_ _0607_ _0616_ _0070_ vdd vdd vss vss gf180mcu_fd_sc_mcu7t5v0__nor2_1
XFILLER_0_58_177 vdd vdd vss vss gf180mcu_fd_sc_mcu7t5v0__fill_2
XFILLER_0_46_317 vdd vdd vss vss gf180mcu_fd_sc_mcu7t5v0__fillcap_64
XFILLER_0_6_403 vdd vdd vss vss gf180mcu_fd_sc_mcu7t5v0__fillcap_4
XFILLER_0_13_51 vdd vdd vss vss gf180mcu_fd_sc_mcu7t5v0__fill_1
XFILLER_0_54_361 vdd vdd vss vss gf180mcu_fd_sc_mcu7t5v0__fillcap_4
X_1606_ spi.data_in_buff\[0\] _0396_ _0211_ spi.data_in_buff\[1\] _0212_ vdd vdd vss
+ vss gf180mcu_fd_sc_mcu7t5v0__aoi22_1
X_0985_ _0381_ _0382_ _0383_ vdd vdd vss vss gf180mcu_fd_sc_mcu7t5v0__nand2_1
XFILLER_0_14_247 vdd vdd vss vss gf180mcu_fd_sc_mcu7t5v0__fill_2
X_1537_ _0154_ _0150_ _0155_ _0818_ _0156_ vdd vdd vss vss gf180mcu_fd_sc_mcu7t5v0__aoi22_1
X_1399_ uart.div_counter\[13\] uart.divisor\[13\] _0721_ vdd vdd vss vss gf180mcu_fd_sc_mcu7t5v0__xor2_1
X_1468_ uart.data_buff\[4\] _0782_ vdd vdd vss vss gf180mcu_fd_sc_mcu7t5v0__clkinv_1
XANTENNA__1747__CLK clknet_4_13_0_wb_clk_i vdd vdd vss vss gf180mcu_fd_sc_mcu7t5v0__antenna
XANTENNA__1299__I _0613_ vdd vdd vss vss gf180mcu_fd_sc_mcu7t5v0__antenna
XANTENNA__1427__A1 _0419_ vdd vdd vss vss gf180mcu_fd_sc_mcu7t5v0__antenna
XFILLER_0_60_375 vdd vdd vss vss gf180mcu_fd_sc_mcu7t5v0__fillcap_8
XFILLER_0_18_18 vdd vdd vss vss gf180mcu_fd_sc_mcu7t5v0__fillcap_8
XFILLER_0_55_136 vdd vdd vss vss gf180mcu_fd_sc_mcu7t5v0__fillcap_4
XFILLER_0_28_317 vdd vdd vss vss gf180mcu_fd_sc_mcu7t5v0__fillcap_32
X_1322_ _0614_ _0659_ _0639_ _0661_ vdd vdd vss vss gf180mcu_fd_sc_mcu7t5v0__oai21_1
X_1253_ spi.divisor\[5\] _0592_ _0603_ vdd vdd vss vss gf180mcu_fd_sc_mcu7t5v0__nand2_1
XANTENNA__1605__C _0357_ vdd vdd vss vss gf180mcu_fd_sc_mcu7t5v0__antenna
X_1184_ net1 _0552_ vdd vdd vss vss gf180mcu_fd_sc_mcu7t5v0__inv_1
XANTENNA__1409__A1 uart.div_counter\[12\] vdd vdd vss vss gf180mcu_fd_sc_mcu7t5v0__antenna
XFILLER_0_24_50 vdd vdd vss vss gf180mcu_fd_sc_mcu7t5v0__fill_1
XFILLER_0_46_103 vdd vdd vss vss gf180mcu_fd_sc_mcu7t5v0__fill_2
XFILLER_0_6_200 vdd vdd vss vss gf180mcu_fd_sc_mcu7t5v0__fillcap_8
XFILLER_0_6_255 vdd vdd vss vss gf180mcu_fd_sc_mcu7t5v0__fillcap_4
XFILLER_0_6_244 vdd vdd vss vss gf180mcu_fd_sc_mcu7t5v0__fill_1
X_0968_ _0364_ _0359_ _0369_ _0370_ vdd vdd vss vss gf180mcu_fd_sc_mcu7t5v0__oai21_1
XFILLER_0_40_93 vdd vdd vss vss gf180mcu_fd_sc_mcu7t5v0__fillcap_4
XFILLER_0_10_261 vdd vdd vss vss gf180mcu_fd_sc_mcu7t5v0__fill_2
X_0899_ _0284_ _0311_ vdd vdd vss vss gf180mcu_fd_sc_mcu7t5v0__buf_1
XTAP_TAPCELL_ROW_2_143 vdd vss gf180mcu_fd_sc_mcu7t5v0__filltie
XFILLER_0_10_283 vdd vdd vss vss gf180mcu_fd_sc_mcu7t5v0__fillcap_32
XFILLER_0_45_180 vdd vdd vss vss gf180mcu_fd_sc_mcu7t5v0__fill_1
XTAP_TAPCELL_ROW_16_234 vdd vss gf180mcu_fd_sc_mcu7t5v0__filltie
XFILLER_0_51_194 vdd vdd vss vss gf180mcu_fd_sc_mcu7t5v0__fillcap_16
XFILLER_0_51_172 vdd vdd vss vss gf180mcu_fd_sc_mcu7t5v0__fillcap_4
XFILLER_0_51_183 vdd vdd vss vss gf180mcu_fd_sc_mcu7t5v0__fillcap_4
X_1305_ _0645_ _0640_ _0646_ _0622_ _0647_ vdd vdd vss vss gf180mcu_fd_sc_mcu7t5v0__aoi22_1
X_1236_ _0590_ _0591_ vdd vdd vss vss gf180mcu_fd_sc_mcu7t5v0__buf_1
XFILLER_0_19_72 vdd vdd vss vss gf180mcu_fd_sc_mcu7t5v0__fill_2
XANTENNA__1351__B _0681_ vdd vdd vss vss gf180mcu_fd_sc_mcu7t5v0__antenna
X_1167_ uart.receive_div_counter\[15\] uart.divisor\[15\] _0535_ vdd vdd vss vss gf180mcu_fd_sc_mcu7t5v0__xor2_1
XANTENNA_clkbuf_4_5_0_wb_clk_i_I clknet_0_wb_clk_i vdd vdd vss vss gf180mcu_fd_sc_mcu7t5v0__antenna
X_1098_ net4 _0272_ _0471_ _0474_ vdd vdd vss vss gf180mcu_fd_sc_mcu7t5v0__nor3_2
XFILLER_0_30_356 vdd vdd vss vss gf180mcu_fd_sc_mcu7t5v0__fill_2
XTAP_TAPCELL_ROW_38_381 vdd vss gf180mcu_fd_sc_mcu7t5v0__filltie
XFILLER_0_53_426 vdd vdd vss vss gf180mcu_fd_sc_mcu7t5v0__fillcap_8
XFILLER_0_38_434 vdd vdd vss vss gf180mcu_fd_sc_mcu7t5v0__fill_2
XFILLER_0_38_401 vdd vdd vss vss gf180mcu_fd_sc_mcu7t5v0__fillcap_16
XFILLER_0_25_106 vdd vdd vss vss gf180mcu_fd_sc_mcu7t5v0__fillcap_32
XTAP_TAPCELL_ROW_13_215 vdd vss gf180mcu_fd_sc_mcu7t5v0__filltie
XFILLER_0_33_172 vdd vdd vss vss gf180mcu_fd_sc_mcu7t5v0__fillcap_32
XFILLER_0_21_345 vdd vdd vss vss gf180mcu_fd_sc_mcu7t5v0__fill_1
XFILLER_0_21_323 vdd vdd vss vss gf180mcu_fd_sc_mcu7t5v0__fill_2
XFILLER_0_21_312 vdd vdd vss vss gf180mcu_fd_sc_mcu7t5v0__fillcap_4
XTAP_TAPCELL_ROW_21_270 vdd vss gf180mcu_fd_sc_mcu7t5v0__filltie
XFILLER_0_56_37 vdd vdd vss vss gf180mcu_fd_sc_mcu7t5v0__fillcap_32
XFILLER_0_48_209 vdd vdd vss vss gf180mcu_fd_sc_mcu7t5v0__fillcap_8
XFILLER_0_8_317 vdd vdd vss vss gf180mcu_fd_sc_mcu7t5v0__fillcap_8
X_1021_ spi.data_in_buff\[4\] _0407_ _0411_ vdd vdd vss vss gf180mcu_fd_sc_mcu7t5v0__nand2_1
XFILLER_0_56_242 vdd vdd vss vss gf180mcu_fd_sc_mcu7t5v0__fill_2
XFILLER_0_21_84 vdd vdd vss vss gf180mcu_fd_sc_mcu7t5v0__fill_2
X_1785_ _0131_ clknet_4_0_0_wb_clk_i spi.data_in_buff\[4\] vdd vdd vss vss gf180mcu_fd_sc_mcu7t5v0__dffq_1
XFILLER_0_46_70 vdd vdd vss vss gf180mcu_fd_sc_mcu7t5v0__fillcap_4
X_1219_ uart.divisor\[11\] _0576_ _0579_ vdd vdd vss vss gf180mcu_fd_sc_mcu7t5v0__nand2_1
XTAP_TAPCELL_ROW_27_307 vdd vss gf180mcu_fd_sc_mcu7t5v0__filltie
XFILLER_0_47_297 vdd vdd vss vss gf180mcu_fd_sc_mcu7t5v0__fillcap_8
XTAP_TAPCELL_ROW_35_362 vdd vss gf180mcu_fd_sc_mcu7t5v0__filltie
XFILLER_0_1_72 vdd vdd vss vss gf180mcu_fd_sc_mcu7t5v0__fillcap_16
XFILLER_0_7_372 vdd vdd vss vss gf180mcu_fd_sc_mcu7t5v0__fillcap_4
XANTENNA__1003__A2 spi.data_out_buff\[7\] vdd vdd vss vss gf180mcu_fd_sc_mcu7t5v0__antenna
XFILLER_0_15_183 vdd vdd vss vss gf180mcu_fd_sc_mcu7t5v0__fill_2
XFILLER_0_53_278 vdd vdd vss vss gf180mcu_fd_sc_mcu7t5v0__fill_2
XFILLER_0_53_212 vdd vdd vss vss gf180mcu_fd_sc_mcu7t5v0__fill_2
XFILLER_0_41_418 vdd vdd vss vss gf180mcu_fd_sc_mcu7t5v0__fill_2
XTAP_TAPCELL_ROW_41_398 vdd vss gf180mcu_fd_sc_mcu7t5v0__filltie
XFILLER_0_38_242 vdd vdd vss vss gf180mcu_fd_sc_mcu7t5v0__fill_2
X_1570_ _0175_ _0171_ _0183_ _0184_ vdd vdd vss vss gf180mcu_fd_sc_mcu7t5v0__nand3_1
XFILLER_0_21_120 vdd vdd vss vss gf180mcu_fd_sc_mcu7t5v0__fill_2
XFILLER_0_21_131 vdd vdd vss vss gf180mcu_fd_sc_mcu7t5v0__fill_1
XTAP_TAPCELL_ROW_49_454 vdd vss gf180mcu_fd_sc_mcu7t5v0__filltie
XFILLER_0_16_51 vdd vdd vss vss gf180mcu_fd_sc_mcu7t5v0__fillcap_16
XTAP_TAPCELL_ROW_32_343 vdd vss gf180mcu_fd_sc_mcu7t5v0__filltie
XFILLER_0_29_220 vdd vdd vss vss gf180mcu_fd_sc_mcu7t5v0__fillcap_4
XANTENNA__1780__CLK clknet_4_1_0_wb_clk_i vdd vdd vss vss gf180mcu_fd_sc_mcu7t5v0__antenna
X_1004_ _0397_ _0398_ _0022_ vdd vdd vss vss gf180mcu_fd_sc_mcu7t5v0__nand2_1
XFILLER_0_44_278 vdd vdd vss vss gf180mcu_fd_sc_mcu7t5v0__fill_2
X_1768_ _0114_ clknet_4_5_0_wb_clk_i uart.div_counter\[5\] vdd vdd vss vss gf180mcu_fd_sc_mcu7t5v0__dffq_1
XFILLER_0_17_448 vdd vdd vss vss gf180mcu_fd_sc_mcu7t5v0__fill_2
X_1699_ _0045_ clknet_4_14_0_wb_clk_i net22 vdd vdd vss vss gf180mcu_fd_sc_mcu7t5v0__dffq_1
XFILLER_0_35_278 vdd vdd vss vss gf180mcu_fd_sc_mcu7t5v0__fill_2
XFILLER_0_35_212 vdd vdd vss vss gf180mcu_fd_sc_mcu7t5v0__fillcap_8
Xoutput20 net20 data_out[2] vdd vdd vss vss gf180mcu_fd_sc_mcu7t5v0__buf_8
XTAP_TAPCELL_ROW_46_435 vdd vss gf180mcu_fd_sc_mcu7t5v0__filltie
XFILLER_0_41_204 vdd vdd vss vss gf180mcu_fd_sc_mcu7t5v0__fill_1
XFILLER_0_26_278 vdd vdd vss vss gf180mcu_fd_sc_mcu7t5v0__fillcap_16
XFILLER_0_5_139 vdd vdd vss vss gf180mcu_fd_sc_mcu7t5v0__fill_1
XFILLER_0_5_106 vdd vdd vss vss gf180mcu_fd_sc_mcu7t5v0__fill_2
X_1622_ _0354_ _0221_ _0134_ vdd vdd vss vss gf180mcu_fd_sc_mcu7t5v0__nor2_1
X_1553_ _0147_ _0144_ _0168_ _0169_ vdd vdd vss vss gf180mcu_fd_sc_mcu7t5v0__nor3_2
X_1484_ _0791_ _0792_ _0795_ _0790_ _0104_ vdd vdd vss vss gf180mcu_fd_sc_mcu7t5v0__aoi211_1
XFILLER_0_27_72 vdd vdd vss vss gf180mcu_fd_sc_mcu7t5v0__fillcap_8
XFILLER_0_57_392 vdd vdd vss vss gf180mcu_fd_sc_mcu7t5v0__fillcap_4
XFILLER_0_17_278 vdd vdd vss vss gf180mcu_fd_sc_mcu7t5v0__fill_2
XFILLER_0_32_259 vdd vdd vss vss gf180mcu_fd_sc_mcu7t5v0__fill_1
XANTENNA__1676__CLK clknet_4_8_0_wb_clk_i vdd vdd vss vss gf180mcu_fd_sc_mcu7t5v0__antenna
XFILLER_0_13_462 vdd vdd vss vss gf180mcu_fd_sc_mcu7t5v0__fill_1
XANTENNA__1142__A1 uart.divisor\[5\] vdd vdd vss vss gf180mcu_fd_sc_mcu7t5v0__antenna
XFILLER_0_23_259 vdd vdd vss vss gf180mcu_fd_sc_mcu7t5v0__fill_2
XFILLER_0_23_204 vdd vdd vss vss gf180mcu_fd_sc_mcu7t5v0__fill_2
XFILLER_0_48_49 vdd vdd vss vss gf180mcu_fd_sc_mcu7t5v0__fill_2
XTAP_TAPCELL_ROW_8_182 vdd vss gf180mcu_fd_sc_mcu7t5v0__filltie
XFILLER_0_58_123 vdd vdd vss vss gf180mcu_fd_sc_mcu7t5v0__fillcap_4
XFILLER_0_58_101 vdd vdd vss vss gf180mcu_fd_sc_mcu7t5v0__fillcap_4
XFILLER_0_58_167 vdd vdd vss vss gf180mcu_fd_sc_mcu7t5v0__fill_2
XANTENNA__1699__CLK clknet_4_14_0_wb_clk_i vdd vdd vss vss gf180mcu_fd_sc_mcu7t5v0__antenna
XFILLER_0_6_448 vdd vdd vss vss gf180mcu_fd_sc_mcu7t5v0__fillcap_4
X_0984_ spi.div_counter\[4\] _0378_ _0382_ vdd vdd vss vss gf180mcu_fd_sc_mcu7t5v0__and2_1
XFILLER_0_13_96 vdd vdd vss vss gf180mcu_fd_sc_mcu7t5v0__fill_1
X_1536_ _0154_ _0147_ _0145_ _0155_ vdd vdd vss vss gf180mcu_fd_sc_mcu7t5v0__nor3_1
XFILLER_0_1_142 vdd vdd vss vss gf180mcu_fd_sc_mcu7t5v0__fillcap_16
X_1605_ _0209_ _0396_ _0211_ _0399_ _0357_ _0127_ vdd vdd vss vss gf180mcu_fd_sc_mcu7t5v0__aoi221_1
XFILLER_0_10_432 vdd vdd vss vss gf180mcu_fd_sc_mcu7t5v0__fill_2
XFILLER_0_10_443 vdd vdd vss vss gf180mcu_fd_sc_mcu7t5v0__fillcap_8
X_1398_ _0718_ _0719_ _0720_ vdd vdd vss vss gf180mcu_fd_sc_mcu7t5v0__nor2_1
X_1467_ _0778_ _0775_ _0781_ _0694_ _0101_ vdd vdd vss vss gf180mcu_fd_sc_mcu7t5v0__aoi211_1
XFILLER_0_54_92 vdd vdd vss vss gf180mcu_fd_sc_mcu7t5v0__fillcap_8
XFILLER_0_49_189 vdd vdd vss vss gf180mcu_fd_sc_mcu7t5v0__fill_2
XFILLER_0_49_134 vdd vdd vss vss gf180mcu_fd_sc_mcu7t5v0__fillcap_4
XFILLER_0_60_387 vdd vdd vss vss gf180mcu_fd_sc_mcu7t5v0__fillcap_8
XFILLER_0_20_207 vdd vdd vss vss gf180mcu_fd_sc_mcu7t5v0__fillcap_4
XTAP_TAPCELL_ROW_5_163 vdd vss gf180mcu_fd_sc_mcu7t5v0__filltie
XFILLER_0_55_104 vdd vdd vss vss gf180mcu_fd_sc_mcu7t5v0__fillcap_16
XFILLER_0_51_387 vdd vdd vss vss gf180mcu_fd_sc_mcu7t5v0__fillcap_16
XFILLER_0_51_365 vdd vdd vss vss gf180mcu_fd_sc_mcu7t5v0__fillcap_16
XFILLER_0_51_354 vdd vdd vss vss gf180mcu_fd_sc_mcu7t5v0__fill_1
XFILLER_0_36_373 vdd vdd vss vss gf180mcu_fd_sc_mcu7t5v0__fill_2
XFILLER_0_11_218 vdd vdd vss vss gf180mcu_fd_sc_mcu7t5v0__fillcap_32
Xclkbuf_4_12_0_wb_clk_i clknet_0_wb_clk_i clknet_4_12_0_wb_clk_i vdd vdd vss vss gf180mcu_fd_sc_mcu7t5v0__clkbuf_8
X_1321_ _0642_ _0659_ _0660_ vdd vdd vss vss gf180mcu_fd_sc_mcu7t5v0__nor2_1
X_1252_ _0448_ _0595_ _0602_ vdd vdd vss vss gf180mcu_fd_sc_mcu7t5v0__nand2_1
X_1183_ _0526_ _0551_ vdd vdd vss vss gf180mcu_fd_sc_mcu7t5v0__clkbuf_2
XTAP_TAPCELL_ROW_19_254 vdd vss gf180mcu_fd_sc_mcu7t5v0__filltie
XFILLER_0_42_354 vdd vdd vss vss gf180mcu_fd_sc_mcu7t5v0__fillcap_8
XFILLER_0_27_362 vdd vdd vss vss gf180mcu_fd_sc_mcu7t5v0__fill_1
X_0967_ _0345_ _0369_ vdd vdd vss vss gf180mcu_fd_sc_mcu7t5v0__buf_2
XFILLER_0_57_2 vdd vdd vss vss gf180mcu_fd_sc_mcu7t5v0__fillcap_64
XFILLER_0_42_376 vdd vdd vss vss gf180mcu_fd_sc_mcu7t5v0__fill_1
X_1519_ _0821_ _0809_ _0822_ _0823_ _0824_ vdd vdd vss vss gf180mcu_fd_sc_mcu7t5v0__aoi22_1
XANTENNA__1714__CLK clknet_4_3_0_wb_clk_i vdd vdd vss vss gf180mcu_fd_sc_mcu7t5v0__antenna
XPHY_EDGE_ROW_12_Right_12 vdd vss gf180mcu_fd_sc_mcu7t5v0__endcap
X_0898_ _0285_ _0310_ _0004_ vdd vdd vss vss gf180mcu_fd_sc_mcu7t5v0__nor2_1
XPHY_EDGE_ROW_21_Right_21 vdd vss gf180mcu_fd_sc_mcu7t5v0__endcap
XFILLER_0_4_61 vdd vdd vss vss gf180mcu_fd_sc_mcu7t5v0__fill_1
XTAP_TAPCELL_ROW_2_144 vdd vss gf180mcu_fd_sc_mcu7t5v0__filltie
XFILLER_0_52_107 vdd vdd vss vss gf180mcu_fd_sc_mcu7t5v0__fillcap_8
XFILLER_0_37_137 vdd vdd vss vss gf180mcu_fd_sc_mcu7t5v0__fill_2
XANTENNA__1259__B _0601_ vdd vdd vss vss gf180mcu_fd_sc_mcu7t5v0__antenna
XPHY_EDGE_ROW_30_Right_30 vdd vss gf180mcu_fd_sc_mcu7t5v0__endcap
XANTENNA__1584__A1 _0167_ vdd vdd vss vss gf180mcu_fd_sc_mcu7t5v0__antenna
XFILLER_0_18_384 vdd vdd vss vss gf180mcu_fd_sc_mcu7t5v0__fill_1
XFILLER_0_0_19 vdd vdd vss vss gf180mcu_fd_sc_mcu7t5v0__fillcap_8
XANTENNA__1441__C _0636_ vdd vdd vss vss gf180mcu_fd_sc_mcu7t5v0__antenna
XTAP_TAPCELL_ROW_16_235 vdd vss gf180mcu_fd_sc_mcu7t5v0__filltie
XFILLER_0_56_457 vdd vdd vss vss gf180mcu_fd_sc_mcu7t5v0__fillcap_8
XFILLER_0_56_446 vdd vdd vss vss gf180mcu_fd_sc_mcu7t5v0__fillcap_8
XTAP_TAPCELL_ROW_24_290 vdd vss gf180mcu_fd_sc_mcu7t5v0__filltie
XFILLER_0_24_310 vdd vdd vss vss gf180mcu_fd_sc_mcu7t5v0__fillcap_4
XANTENNA__1737__CLK clknet_4_5_0_wb_clk_i vdd vdd vss vss gf180mcu_fd_sc_mcu7t5v0__antenna
XFILLER_0_10_31 vdd vdd vss vss gf180mcu_fd_sc_mcu7t5v0__fill_2
XFILLER_0_10_64 vdd vdd vss vss gf180mcu_fd_sc_mcu7t5v0__fill_2
XFILLER_0_19_40 vdd vdd vss vss gf180mcu_fd_sc_mcu7t5v0__fill_1
X_1304_ _0645_ _0637_ _0634_ _0646_ vdd vdd vss vss gf180mcu_fd_sc_mcu7t5v0__nor3_1
X_1166_ uart.receive_div_counter\[11\] uart.divisor\[11\] _0534_ vdd vdd vss vss gf180mcu_fd_sc_mcu7t5v0__xor2_1
X_1235_ _0425_ _0476_ _0590_ vdd vdd vss vss gf180mcu_fd_sc_mcu7t5v0__nand2_1
XFILLER_0_59_240 vdd vdd vss vss gf180mcu_fd_sc_mcu7t5v0__fillcap_8
XFILLER_0_47_413 vdd vdd vss vss gf180mcu_fd_sc_mcu7t5v0__fillcap_4
XFILLER_0_35_72 vdd vdd vss vss gf180mcu_fd_sc_mcu7t5v0__fill_1
XFILLER_0_34_107 vdd vdd vss vss gf180mcu_fd_sc_mcu7t5v0__fillcap_8
X_1097_ _0472_ _0473_ vdd vdd vss vss gf180mcu_fd_sc_mcu7t5v0__buf_2
XFILLER_0_51_93 vdd vdd vss vss gf180mcu_fd_sc_mcu7t5v0__fillcap_32
XFILLER_0_51_82 vdd vdd vss vss gf180mcu_fd_sc_mcu7t5v0__fill_1
XFILLER_0_42_173 vdd vdd vss vss gf180mcu_fd_sc_mcu7t5v0__fill_2
XTAP_TAPCELL_ROW_38_382 vdd vss gf180mcu_fd_sc_mcu7t5v0__filltie
XFILLER_0_38_457 vdd vdd vss vss gf180mcu_fd_sc_mcu7t5v0__fillcap_8
XTAP_TAPCELL_ROW_21_271 vdd vss gf180mcu_fd_sc_mcu7t5v0__filltie
XTAP_TAPCELL_ROW_13_216 vdd vss gf180mcu_fd_sc_mcu7t5v0__filltie
XFILLER_0_61_460 vdd vdd vss vss gf180mcu_fd_sc_mcu7t5v0__fillcap_4
XFILLER_0_21_368 vdd vdd vss vss gf180mcu_fd_sc_mcu7t5v0__fill_2
X_1020_ _0408_ _0409_ _0410_ _0026_ vdd vdd vss vss gf180mcu_fd_sc_mcu7t5v0__aoi21_1
XFILLER_0_56_232 vdd vdd vss vss gf180mcu_fd_sc_mcu7t5v0__fillcap_4
XFILLER_0_29_424 vdd vdd vss vss gf180mcu_fd_sc_mcu7t5v0__fill_1
XFILLER_0_8_307 vdd vdd vss vss gf180mcu_fd_sc_mcu7t5v0__fill_1
XFILLER_0_44_427 vdd vdd vss vss gf180mcu_fd_sc_mcu7t5v0__fillcap_4
XFILLER_0_21_63 vdd vdd vss vss gf180mcu_fd_sc_mcu7t5v0__fill_2
X_1784_ _0130_ clknet_4_0_0_wb_clk_i spi.data_in_buff\[3\] vdd vdd vss vss gf180mcu_fd_sc_mcu7t5v0__dffq_1
XFILLER_0_16_107 vdd vdd vss vss gf180mcu_fd_sc_mcu7t5v0__fill_2
XFILLER_0_12_357 vdd vdd vss vss gf180mcu_fd_sc_mcu7t5v0__fillcap_4
X_1149_ _0484_ _0516_ _0517_ _0518_ _0519_ vdd vdd vss vss gf180mcu_fd_sc_mcu7t5v0__nand4_1
X_1218_ _0440_ _0571_ _0578_ vdd vdd vss vss gf180mcu_fd_sc_mcu7t5v0__nand2_1
XTAP_TAPCELL_ROW_27_308 vdd vss gf180mcu_fd_sc_mcu7t5v0__filltie
XTAP_TAPCELL_ROW_35_363 vdd vss gf180mcu_fd_sc_mcu7t5v0__filltie
XFILLER_0_7_362 vdd vdd vss vss gf180mcu_fd_sc_mcu7t5v0__fill_1
XANTENNA__1003__A3 _0369_ vdd vdd vss vss gf180mcu_fd_sc_mcu7t5v0__antenna
XFILLER_0_15_195 vdd vdd vss vss gf180mcu_fd_sc_mcu7t5v0__fillcap_4
XTAP_TAPCELL_ROW_41_399 vdd vss gf180mcu_fd_sc_mcu7t5v0__filltie
X_1003_ _0333_ spi.data_out_buff\[7\] _0369_ _0335_ _0398_ vdd vdd vss vss gf180mcu_fd_sc_mcu7t5v0__nand4_1
XTAP_TAPCELL_ROW_32_344 vdd vss gf180mcu_fd_sc_mcu7t5v0__filltie
X_1767_ _0113_ clknet_4_5_0_wb_clk_i uart.div_counter\[4\] vdd vdd vss vss gf180mcu_fd_sc_mcu7t5v0__dffq_1
X_1698_ _0044_ clknet_4_11_0_wb_clk_i net21 vdd vdd vss vss gf180mcu_fd_sc_mcu7t5v0__dffq_1
XPHY_EDGE_ROW_6_Right_6 vdd vss gf180mcu_fd_sc_mcu7t5v0__endcap
XANTENNA_input11_I data_in[4] vdd vdd vss vss gf180mcu_fd_sc_mcu7t5v0__antenna
XFILLER_0_35_257 vdd vdd vss vss gf180mcu_fd_sc_mcu7t5v0__fill_2
XFILLER_0_35_224 vdd vdd vss vss gf180mcu_fd_sc_mcu7t5v0__fill_2
XANTENNA__0950__I _0353_ vdd vdd vss vss gf180mcu_fd_sc_mcu7t5v0__antenna
Xoutput21 net21 data_out[3] vdd vdd vss vss gf180mcu_fd_sc_mcu7t5v0__buf_8
XFILLER_0_9_2 vdd vdd vss vss gf180mcu_fd_sc_mcu7t5v0__fillcap_32
XANTENNA__1160__A2 uart.divisor\[9\] vdd vdd vss vss gf180mcu_fd_sc_mcu7t5v0__antenna
XPHY_EDGE_ROW_59_Right_59 vdd vss gf180mcu_fd_sc_mcu7t5v0__endcap
XFILLER_0_58_349 vdd vdd vss vss gf180mcu_fd_sc_mcu7t5v0__fillcap_8
XFILLER_0_41_249 vdd vdd vss vss gf180mcu_fd_sc_mcu7t5v0__fill_2
X_1552_ uart.div_counter\[7\] uart.div_counter\[6\] uart.div_counter\[5\] _0168_ vdd
+ vdd vss vss gf180mcu_fd_sc_mcu7t5v0__nand3_1
X_1621_ spi.data_in_buff\[6\] _0395_ _0217_ spi.data_in_buff\[7\] _0221_ vdd vdd vss
+ vss gf180mcu_fd_sc_mcu7t5v0__aoi22_1
XFILLER_0_1_302 vdd vdd vss vss gf180mcu_fd_sc_mcu7t5v0__fill_1
XANTENNA__0860__I _0276_ vdd vdd vss vss gf180mcu_fd_sc_mcu7t5v0__antenna
XANTENNA_input3_I addr[1] vdd vdd vss vss gf180mcu_fd_sc_mcu7t5v0__antenna
X_1483_ _0444_ _0787_ _0783_ _0794_ _0795_ vdd vdd vss vss gf180mcu_fd_sc_mcu7t5v0__aoi211_1
XFILLER_0_27_84 vdd vdd vss vss gf180mcu_fd_sc_mcu7t5v0__fill_2
XFILLER_0_7_72 vdd vdd vss vss gf180mcu_fd_sc_mcu7t5v0__fillcap_16
XFILLER_0_7_94 vdd vdd vss vss gf180mcu_fd_sc_mcu7t5v0__fill_1
XFILLER_0_55_308 vdd vdd vss vss gf180mcu_fd_sc_mcu7t5v0__fill_2
XPHY_EDGE_ROW_37_Left_99 vdd vss gf180mcu_fd_sc_mcu7t5v0__endcap
XANTENNA__1770__CLK clknet_4_5_0_wb_clk_i vdd vdd vss vss gf180mcu_fd_sc_mcu7t5v0__antenna
XPHY_EDGE_ROW_39_Left_101 vdd vss gf180mcu_fd_sc_mcu7t5v0__endcap
XFILLER_0_31_282 vdd vdd vss vss gf180mcu_fd_sc_mcu7t5v0__fillcap_8
XTAP_TAPCELL_ROW_8_183 vdd vss gf180mcu_fd_sc_mcu7t5v0__filltie
XANTENNA__1016__I _0327_ vdd vdd vss vss gf180mcu_fd_sc_mcu7t5v0__antenna
XPHY_EDGE_ROW_48_Left_110 vdd vss gf180mcu_fd_sc_mcu7t5v0__endcap
XANTENNA__0855__I net3 vdd vdd vss vss gf180mcu_fd_sc_mcu7t5v0__antenna
XFILLER_0_58_179 vdd vdd vss vss gf180mcu_fd_sc_mcu7t5v0__fill_1
XFILLER_0_54_374 vdd vdd vss vss gf180mcu_fd_sc_mcu7t5v0__fillcap_8
X_0983_ spi.div_counter\[5\] _0381_ vdd vdd vss vss gf180mcu_fd_sc_mcu7t5v0__buf_1
X_1535_ uart.div_counter\[5\] _0154_ vdd vdd vss vss gf180mcu_fd_sc_mcu7t5v0__clkbuf_1
X_1604_ _0210_ _0211_ vdd vdd vss vss gf180mcu_fd_sc_mcu7t5v0__clkbuf_1
XFILLER_0_14_249 vdd vdd vss vss gf180mcu_fd_sc_mcu7t5v0__fill_1
X_1397_ uart.div_counter\[6\] uart.divisor\[6\] _0719_ vdd vdd vss vss gf180mcu_fd_sc_mcu7t5v0__xor2_1
X_1466_ net8 _0756_ _0772_ _0780_ _0781_ vdd vdd vss vss gf180mcu_fd_sc_mcu7t5v0__aoi211_1
XFILLER_0_9_265 vdd vdd vss vss gf180mcu_fd_sc_mcu7t5v0__fillcap_4
XANTENNA__1793__CLK clknet_4_14_0_wb_clk_i vdd vdd vss vss gf180mcu_fd_sc_mcu7t5v0__antenna
XANTENNA__1060__A1 uart.divisor\[3\] vdd vdd vss vss gf180mcu_fd_sc_mcu7t5v0__antenna
XFILLER_0_5_460 vdd vdd vss vss gf180mcu_fd_sc_mcu7t5v0__fill_2
XFILLER_0_9_298 vdd vdd vss vss gf180mcu_fd_sc_mcu7t5v0__fillcap_4
XFILLER_0_20_219 vdd vdd vss vss gf180mcu_fd_sc_mcu7t5v0__fillcap_4
XTAP_TAPCELL_ROW_5_164 vdd vss gf180mcu_fd_sc_mcu7t5v0__filltie
XFILLER_0_13_282 vdd vdd vss vss gf180mcu_fd_sc_mcu7t5v0__fillcap_16
XANTENNA__1115__A2 _0487_ vdd vdd vss vss gf180mcu_fd_sc_mcu7t5v0__antenna
X_1320_ _0658_ _0657_ _0659_ vdd vdd vss vss gf180mcu_fd_sc_mcu7t5v0__and2_1
X_1182_ uart.receive_counter\[0\] _0549_ _0550_ vdd vdd vss vss gf180mcu_fd_sc_mcu7t5v0__or2_1