* NGSPICE file created from wrapped_as2650.ext - technology: gf180mcuC

* Black-box entry subcircuit for gf180mcu_fd_sc_mcu7t5v0__fillcap_4 abstract view
.subckt gf180mcu_fd_sc_mcu7t5v0__fillcap_4 VDD VSS
.ends

* Black-box entry subcircuit for gf180mcu_fd_sc_mcu7t5v0__fill_1 abstract view
.subckt gf180mcu_fd_sc_mcu7t5v0__fill_1 VDD VSS
.ends

* Black-box entry subcircuit for gf180mcu_fd_sc_mcu7t5v0__fill_2 abstract view
.subckt gf180mcu_fd_sc_mcu7t5v0__fill_2 VDD VSS
.ends

* Black-box entry subcircuit for gf180mcu_fd_sc_mcu7t5v0__antenna abstract view
.subckt gf180mcu_fd_sc_mcu7t5v0__antenna I VDD VSS
.ends

* Black-box entry subcircuit for gf180mcu_fd_sc_mcu7t5v0__fillcap_64 abstract view
.subckt gf180mcu_fd_sc_mcu7t5v0__fillcap_64 VDD VSS
.ends

* Black-box entry subcircuit for gf180mcu_fd_sc_mcu7t5v0__nand2_1 abstract view
.subckt gf180mcu_fd_sc_mcu7t5v0__nand2_1 A1 A2 ZN VDD VSS
.ends

* Black-box entry subcircuit for gf180mcu_fd_sc_mcu7t5v0__clkinv_1 abstract view
.subckt gf180mcu_fd_sc_mcu7t5v0__clkinv_1 I ZN VDD VSS
.ends

* Black-box entry subcircuit for gf180mcu_fd_sc_mcu7t5v0__fillcap_8 abstract view
.subckt gf180mcu_fd_sc_mcu7t5v0__fillcap_8 VDD VSS
.ends

* Black-box entry subcircuit for gf180mcu_fd_sc_mcu7t5v0__xnor2_1 abstract view
.subckt gf180mcu_fd_sc_mcu7t5v0__xnor2_1 A1 A2 ZN VDD VSS
.ends

* Black-box entry subcircuit for gf180mcu_fd_sc_mcu7t5v0__fillcap_16 abstract view
.subckt gf180mcu_fd_sc_mcu7t5v0__fillcap_16 VDD VSS
.ends

* Black-box entry subcircuit for gf180mcu_fd_sc_mcu7t5v0__fillcap_32 abstract view
.subckt gf180mcu_fd_sc_mcu7t5v0__fillcap_32 VDD VSS
.ends

* Black-box entry subcircuit for gf180mcu_fd_sc_mcu7t5v0__nor2_1 abstract view
.subckt gf180mcu_fd_sc_mcu7t5v0__nor2_1 A1 A2 ZN VDD VSS
.ends

* Black-box entry subcircuit for gf180mcu_fd_sc_mcu7t5v0__clkbuf_1 abstract view
.subckt gf180mcu_fd_sc_mcu7t5v0__clkbuf_1 I Z VDD VSS
.ends

* Black-box entry subcircuit for gf180mcu_fd_sc_mcu7t5v0__aoi221_1 abstract view
.subckt gf180mcu_fd_sc_mcu7t5v0__aoi221_1 A1 A2 B1 B2 C ZN VDD VSS
.ends

* Black-box entry subcircuit for gf180mcu_fd_sc_mcu7t5v0__aoi21_1 abstract view
.subckt gf180mcu_fd_sc_mcu7t5v0__aoi21_1 A1 A2 B ZN VDD VSS
.ends

* Black-box entry subcircuit for gf180mcu_fd_sc_mcu7t5v0__buf_1 abstract view
.subckt gf180mcu_fd_sc_mcu7t5v0__buf_1 I Z VDD VSS
.ends

* Black-box entry subcircuit for gf180mcu_fd_sc_mcu7t5v0__filltie abstract view
.subckt gf180mcu_fd_sc_mcu7t5v0__filltie VDD VSS
.ends

* Black-box entry subcircuit for gf180mcu_fd_sc_mcu7t5v0__clkbuf_16 abstract view
.subckt gf180mcu_fd_sc_mcu7t5v0__clkbuf_16 I Z VDD VSS
.ends

* Black-box entry subcircuit for gf180mcu_fd_sc_mcu7t5v0__or3_1 abstract view
.subckt gf180mcu_fd_sc_mcu7t5v0__or3_1 A1 A2 A3 Z VDD VSS
.ends

* Black-box entry subcircuit for gf180mcu_fd_sc_mcu7t5v0__nor3_1 abstract view
.subckt gf180mcu_fd_sc_mcu7t5v0__nor3_1 A1 A2 A3 ZN VDD VSS
.ends

* Black-box entry subcircuit for gf180mcu_fd_sc_mcu7t5v0__nand3_1 abstract view
.subckt gf180mcu_fd_sc_mcu7t5v0__nand3_1 A1 A2 A3 ZN VDD VSS
.ends

* Black-box entry subcircuit for gf180mcu_fd_sc_mcu7t5v0__aoi211_1 abstract view
.subckt gf180mcu_fd_sc_mcu7t5v0__aoi211_1 A1 A2 B C ZN VDD VSS
.ends

* Black-box entry subcircuit for gf180mcu_fd_sc_mcu7t5v0__nor4_1 abstract view
.subckt gf180mcu_fd_sc_mcu7t5v0__nor4_1 A1 A2 A3 A4 ZN VDD VSS
.ends

* Black-box entry subcircuit for gf180mcu_fd_sc_mcu7t5v0__dffq_1 abstract view
.subckt gf180mcu_fd_sc_mcu7t5v0__dffq_1 D CLK Q VDD VSS
.ends

* Black-box entry subcircuit for gf180mcu_fd_sc_mcu7t5v0__clkbuf_2 abstract view
.subckt gf180mcu_fd_sc_mcu7t5v0__clkbuf_2 I Z VDD VSS
.ends

* Black-box entry subcircuit for gf180mcu_fd_sc_mcu7t5v0__aoi22_1 abstract view
.subckt gf180mcu_fd_sc_mcu7t5v0__aoi22_1 A1 A2 B1 B2 ZN VDD VSS
.ends

* Black-box entry subcircuit for gf180mcu_fd_sc_mcu7t5v0__xor2_1 abstract view
.subckt gf180mcu_fd_sc_mcu7t5v0__xor2_1 A1 A2 Z VDD VSS
.ends

* Black-box entry subcircuit for gf180mcu_fd_sc_mcu7t5v0__oai21_1 abstract view
.subckt gf180mcu_fd_sc_mcu7t5v0__oai21_1 A1 A2 B ZN VDD VSS
.ends

* Black-box entry subcircuit for gf180mcu_fd_sc_mcu7t5v0__or2_1 abstract view
.subckt gf180mcu_fd_sc_mcu7t5v0__or2_1 A1 A2 Z VDD VSS
.ends

* Black-box entry subcircuit for gf180mcu_fd_sc_mcu7t5v0__oai211_1 abstract view
.subckt gf180mcu_fd_sc_mcu7t5v0__oai211_1 A1 A2 B C ZN VDD VSS
.ends

* Black-box entry subcircuit for gf180mcu_fd_sc_mcu7t5v0__nor4_4 abstract view
.subckt gf180mcu_fd_sc_mcu7t5v0__nor4_4 A1 A2 A3 A4 ZN VDD VSS
.ends

* Black-box entry subcircuit for gf180mcu_fd_sc_mcu7t5v0__oai22_1 abstract view
.subckt gf180mcu_fd_sc_mcu7t5v0__oai22_1 A1 A2 B1 B2 ZN VDD VSS
.ends

* Black-box entry subcircuit for gf180mcu_fd_sc_mcu7t5v0__nor2_2 abstract view
.subckt gf180mcu_fd_sc_mcu7t5v0__nor2_2 A1 A2 ZN VDD VSS
.ends

* Black-box entry subcircuit for gf180mcu_fd_sc_mcu7t5v0__oai221_1 abstract view
.subckt gf180mcu_fd_sc_mcu7t5v0__oai221_1 A1 A2 B1 B2 C ZN VDD VSS
.ends

* Black-box entry subcircuit for gf180mcu_fd_sc_mcu7t5v0__aoi21_2 abstract view
.subckt gf180mcu_fd_sc_mcu7t5v0__aoi21_2 A1 A2 B ZN VDD VSS
.ends

* Black-box entry subcircuit for gf180mcu_fd_sc_mcu7t5v0__nand4_2 abstract view
.subckt gf180mcu_fd_sc_mcu7t5v0__nand4_2 A1 A2 A3 A4 ZN VDD VSS
.ends

* Black-box entry subcircuit for gf180mcu_fd_sc_mcu7t5v0__aoi211_4 abstract view
.subckt gf180mcu_fd_sc_mcu7t5v0__aoi211_4 A1 A2 B C ZN VDD VSS
.ends

* Black-box entry subcircuit for gf180mcu_fd_sc_mcu7t5v0__nand4_4 abstract view
.subckt gf180mcu_fd_sc_mcu7t5v0__nand4_4 A1 A2 A3 A4 ZN VDD VSS
.ends

* Black-box entry subcircuit for gf180mcu_fd_sc_mcu7t5v0__and4_1 abstract view
.subckt gf180mcu_fd_sc_mcu7t5v0__and4_1 A1 A2 A3 A4 Z VDD VSS
.ends

* Black-box entry subcircuit for gf180mcu_fd_sc_mcu7t5v0__nand3_2 abstract view
.subckt gf180mcu_fd_sc_mcu7t5v0__nand3_2 A1 A2 A3 ZN VDD VSS
.ends

* Black-box entry subcircuit for gf180mcu_fd_sc_mcu7t5v0__clkbuf_3 abstract view
.subckt gf180mcu_fd_sc_mcu7t5v0__clkbuf_3 I Z VDD VSS
.ends

* Black-box entry subcircuit for gf180mcu_fd_sc_mcu7t5v0__endcap abstract view
.subckt gf180mcu_fd_sc_mcu7t5v0__endcap VDD VSS
.ends

* Black-box entry subcircuit for gf180mcu_fd_sc_mcu7t5v0__oai31_1 abstract view
.subckt gf180mcu_fd_sc_mcu7t5v0__oai31_1 A1 A2 A3 B ZN VDD VSS
.ends

* Black-box entry subcircuit for gf180mcu_fd_sc_mcu7t5v0__oai21_2 abstract view
.subckt gf180mcu_fd_sc_mcu7t5v0__oai21_2 A1 A2 B ZN VDD VSS
.ends

* Black-box entry subcircuit for gf180mcu_fd_sc_mcu7t5v0__xor3_1 abstract view
.subckt gf180mcu_fd_sc_mcu7t5v0__xor3_1 A1 A2 A3 Z VDD VSS
.ends

* Black-box entry subcircuit for gf180mcu_fd_sc_mcu7t5v0__aoi22_2 abstract view
.subckt gf180mcu_fd_sc_mcu7t5v0__aoi22_2 A1 A2 B1 B2 ZN VDD VSS
.ends

* Black-box entry subcircuit for gf180mcu_fd_sc_mcu7t5v0__mux2_2 abstract view
.subckt gf180mcu_fd_sc_mcu7t5v0__mux2_2 I0 I1 S Z VDD VSS
.ends

* Black-box entry subcircuit for gf180mcu_fd_sc_mcu7t5v0__and2_1 abstract view
.subckt gf180mcu_fd_sc_mcu7t5v0__and2_1 A1 A2 Z VDD VSS
.ends

* Black-box entry subcircuit for gf180mcu_fd_sc_mcu7t5v0__nor3_2 abstract view
.subckt gf180mcu_fd_sc_mcu7t5v0__nor3_2 A1 A2 A3 ZN VDD VSS
.ends

* Black-box entry subcircuit for gf180mcu_fd_sc_mcu7t5v0__inv_1 abstract view
.subckt gf180mcu_fd_sc_mcu7t5v0__inv_1 I ZN VDD VSS
.ends

* Black-box entry subcircuit for gf180mcu_fd_sc_mcu7t5v0__nand4_1 abstract view
.subckt gf180mcu_fd_sc_mcu7t5v0__nand4_1 A1 A2 A3 A4 ZN VDD VSS
.ends

* Black-box entry subcircuit for gf180mcu_fd_sc_mcu7t5v0__oai211_2 abstract view
.subckt gf180mcu_fd_sc_mcu7t5v0__oai211_2 A1 A2 B C ZN VDD VSS
.ends

* Black-box entry subcircuit for gf180mcu_fd_sc_mcu7t5v0__aoi221_2 abstract view
.subckt gf180mcu_fd_sc_mcu7t5v0__aoi221_2 A1 A2 B1 B2 C ZN VDD VSS
.ends

* Black-box entry subcircuit for gf180mcu_fd_sc_mcu7t5v0__nor4_2 abstract view
.subckt gf180mcu_fd_sc_mcu7t5v0__nor4_2 A1 A2 A3 A4 ZN VDD VSS
.ends

* Black-box entry subcircuit for gf180mcu_fd_sc_mcu7t5v0__aoi222_1 abstract view
.subckt gf180mcu_fd_sc_mcu7t5v0__aoi222_1 A1 A2 B1 B2 C1 C2 ZN VDD VSS
.ends

* Black-box entry subcircuit for gf180mcu_fd_sc_mcu7t5v0__oai222_1 abstract view
.subckt gf180mcu_fd_sc_mcu7t5v0__oai222_1 A1 A2 B1 B2 C1 C2 ZN VDD VSS
.ends

* Black-box entry subcircuit for gf180mcu_fd_sc_mcu7t5v0__nand2_2 abstract view
.subckt gf180mcu_fd_sc_mcu7t5v0__nand2_2 A1 A2 ZN VDD VSS
.ends

* Black-box entry subcircuit for gf180mcu_fd_sc_mcu7t5v0__mux4_1 abstract view
.subckt gf180mcu_fd_sc_mcu7t5v0__mux4_1 I0 I1 I2 I3 S0 S1 Z VDD VSS
.ends

* Black-box entry subcircuit for gf180mcu_fd_sc_mcu7t5v0__and3_1 abstract view
.subckt gf180mcu_fd_sc_mcu7t5v0__and3_1 A1 A2 A3 Z VDD VSS
.ends

* Black-box entry subcircuit for gf180mcu_fd_sc_mcu7t5v0__oai32_1 abstract view
.subckt gf180mcu_fd_sc_mcu7t5v0__oai32_1 A1 A2 A3 B1 B2 ZN VDD VSS
.ends

* Black-box entry subcircuit for gf180mcu_fd_sc_mcu7t5v0__oai221_2 abstract view
.subckt gf180mcu_fd_sc_mcu7t5v0__oai221_2 A1 A2 B1 B2 C ZN VDD VSS
.ends

* Black-box entry subcircuit for gf180mcu_fd_sc_mcu7t5v0__aoi211_2 abstract view
.subckt gf180mcu_fd_sc_mcu7t5v0__aoi211_2 A1 A2 B C ZN VDD VSS
.ends

* Black-box entry subcircuit for gf180mcu_fd_sc_mcu7t5v0__aoi222_2 abstract view
.subckt gf180mcu_fd_sc_mcu7t5v0__aoi222_2 A1 A2 B1 B2 C1 C2 ZN VDD VSS
.ends

* Black-box entry subcircuit for gf180mcu_fd_sc_mcu7t5v0__dlyb_1 abstract view
.subckt gf180mcu_fd_sc_mcu7t5v0__dlyb_1 I Z VDD VSS
.ends

* Black-box entry subcircuit for gf180mcu_fd_sc_mcu7t5v0__oai31_2 abstract view
.subckt gf180mcu_fd_sc_mcu7t5v0__oai31_2 A1 A2 A3 B ZN VDD VSS
.ends

* Black-box entry subcircuit for gf180mcu_fd_sc_mcu7t5v0__oai22_2 abstract view
.subckt gf180mcu_fd_sc_mcu7t5v0__oai22_2 A1 A2 B1 B2 ZN VDD VSS
.ends

* Black-box entry subcircuit for gf180mcu_fd_sc_mcu7t5v0__clkinv_2 abstract view
.subckt gf180mcu_fd_sc_mcu7t5v0__clkinv_2 I ZN VDD VSS
.ends

* Black-box entry subcircuit for gf180mcu_fd_sc_mcu7t5v0__tieh abstract view
.subckt gf180mcu_fd_sc_mcu7t5v0__tieh Z VDD VSS
.ends

* Black-box entry subcircuit for gf180mcu_fd_sc_mcu7t5v0__tiel abstract view
.subckt gf180mcu_fd_sc_mcu7t5v0__tiel ZN VDD VSS
.ends

* Black-box entry subcircuit for gf180mcu_fd_sc_mcu7t5v0__xnor3_1 abstract view
.subckt gf180mcu_fd_sc_mcu7t5v0__xnor3_1 A1 A2 A3 ZN VDD VSS
.ends

* Black-box entry subcircuit for gf180mcu_fd_sc_mcu7t5v0__oai32_2 abstract view
.subckt gf180mcu_fd_sc_mcu7t5v0__oai32_2 A1 A2 A3 B1 B2 ZN VDD VSS
.ends

* Black-box entry subcircuit for gf180mcu_fd_sc_mcu7t5v0__dlyc_1 abstract view
.subckt gf180mcu_fd_sc_mcu7t5v0__dlyc_1 I Z VDD VSS
.ends

* Black-box entry subcircuit for gf180mcu_fd_sc_mcu7t5v0__nor3_4 abstract view
.subckt gf180mcu_fd_sc_mcu7t5v0__nor3_4 A1 A2 A3 ZN VDD VSS
.ends

* Black-box entry subcircuit for gf180mcu_fd_sc_mcu7t5v0__aoi22_4 abstract view
.subckt gf180mcu_fd_sc_mcu7t5v0__aoi22_4 A1 A2 B1 B2 ZN VDD VSS
.ends

* Black-box entry subcircuit for gf180mcu_fd_sc_mcu7t5v0__mux4_2 abstract view
.subckt gf180mcu_fd_sc_mcu7t5v0__mux4_2 I0 I1 I2 I3 S0 S1 Z VDD VSS
.ends

* Black-box entry subcircuit for gf180mcu_fd_sc_mcu7t5v0__aoi221_4 abstract view
.subckt gf180mcu_fd_sc_mcu7t5v0__aoi221_4 A1 A2 B1 B2 C ZN VDD VSS
.ends

* Black-box entry subcircuit for gf180mcu_fd_sc_mcu7t5v0__xor2_2 abstract view
.subckt gf180mcu_fd_sc_mcu7t5v0__xor2_2 A1 A2 Z VDD VSS
.ends

* Black-box entry subcircuit for gf180mcu_fd_sc_mcu7t5v0__buf_2 abstract view
.subckt gf180mcu_fd_sc_mcu7t5v0__buf_2 I Z VDD VSS
.ends

* Black-box entry subcircuit for gf180mcu_fd_sc_mcu7t5v0__oai22_4 abstract view
.subckt gf180mcu_fd_sc_mcu7t5v0__oai22_4 A1 A2 B1 B2 ZN VDD VSS
.ends

* Black-box entry subcircuit for gf180mcu_fd_sc_mcu7t5v0__or4_1 abstract view
.subckt gf180mcu_fd_sc_mcu7t5v0__or4_1 A1 A2 A3 A4 Z VDD VSS
.ends

* Black-box entry subcircuit for gf180mcu_fd_sc_mcu7t5v0__oai221_4 abstract view
.subckt gf180mcu_fd_sc_mcu7t5v0__oai221_4 A1 A2 B1 B2 C ZN VDD VSS
.ends

.subckt wrapped_as2650 io_in[0] io_in[10] io_in[11] io_in[12] io_in[13] io_in[14]
+ io_in[15] io_in[16] io_in[17] io_in[18] io_in[19] io_in[1] io_in[20] io_in[21] io_in[22]
+ io_in[23] io_in[24] io_in[25] io_in[26] io_in[27] io_in[28] io_in[29] io_in[2] io_in[30]
+ io_in[31] io_in[32] io_in[33] io_in[34] io_in[35] io_in[36] io_in[37] io_in[3] io_in[4]
+ io_in[5] io_in[6] io_in[7] io_in[8] io_in[9] io_oeb[0] io_oeb[10] io_oeb[11] io_oeb[12]
+ io_oeb[13] io_oeb[14] io_oeb[15] io_oeb[16] io_oeb[17] io_oeb[18] io_oeb[19] io_oeb[1]
+ io_oeb[20] io_oeb[21] io_oeb[22] io_oeb[23] io_oeb[24] io_oeb[25] io_oeb[26] io_oeb[27]
+ io_oeb[28] io_oeb[29] io_oeb[2] io_oeb[30] io_oeb[31] io_oeb[32] io_oeb[33] io_oeb[34]
+ io_oeb[35] io_oeb[36] io_oeb[37] io_oeb[3] io_oeb[4] io_oeb[5] io_oeb[6] io_oeb[7]
+ io_oeb[8] io_oeb[9] io_out[0] io_out[10] io_out[11] io_out[12] io_out[13] io_out[14]
+ io_out[15] io_out[16] io_out[17] io_out[18] io_out[19] io_out[1] io_out[20] io_out[21]
+ io_out[22] io_out[23] io_out[24] io_out[25] io_out[26] io_out[27] io_out[28] io_out[29]
+ io_out[2] io_out[30] io_out[31] io_out[32] io_out[33] io_out[34] io_out[35] io_out[36]
+ io_out[37] io_out[3] io_out[4] io_out[5] io_out[6] io_out[7] io_out[8] io_out[9]
+ vdd vss wb_clk_i
XFILLER_67_520 vdd vss gf180mcu_fd_sc_mcu7t5v0__fillcap_4
XFILLER_95_851 vdd vss gf180mcu_fd_sc_mcu7t5v0__fill_1
XFILLER_95_862 vdd vss gf180mcu_fd_sc_mcu7t5v0__fill_2
XFILLER_55_715 vdd vss gf180mcu_fd_sc_mcu7t5v0__fill_2
XFILLER_82_501 vdd vss gf180mcu_fd_sc_mcu7t5v0__fill_2
XANTENNA__5417__B1 _0726_ vdd vss gf180mcu_fd_sc_mcu7t5v0__antenna
XFILLER_27_428 vdd vss gf180mcu_fd_sc_mcu7t5v0__fillcap_64
X_7963_ _1737_ _3126_ _3199_ vdd vss gf180mcu_fd_sc_mcu7t5v0__nand2_1
XFILLER_82_534 vdd vss gf180mcu_fd_sc_mcu7t5v0__fillcap_64
XFILLER_55_759 vdd vss gf180mcu_fd_sc_mcu7t5v0__fill_2
XFILLER_54_247 vdd vss gf180mcu_fd_sc_mcu7t5v0__fill_1
XFILLER_130_1090 vdd vss gf180mcu_fd_sc_mcu7t5v0__fillcap_4
XFILLER_42_409 vdd vss gf180mcu_fd_sc_mcu7t5v0__fill_2
X_6914_ _2187_ _2226_ vdd vss gf180mcu_fd_sc_mcu7t5v0__clkinv_1
XANTENNA__6425__I _1754_ vdd vss gf180mcu_fd_sc_mcu7t5v0__antenna
X_7894_ _4262_ _2334_ _3140_ vdd vss gf180mcu_fd_sc_mcu7t5v0__nand2_1
XFILLER_51_921 vdd vss gf180mcu_fd_sc_mcu7t5v0__fill_2
XANTENNA__4640__A1 _4053_ vdd vss gf180mcu_fd_sc_mcu7t5v0__antenna
XFILLER_23_634 vdd vss gf180mcu_fd_sc_mcu7t5v0__fillcap_4
XFILLER_1_1490 vdd vss gf180mcu_fd_sc_mcu7t5v0__fill_1
X_6845_ _2158_ _2159_ vdd vss gf180mcu_fd_sc_mcu7t5v0__clkinv_1
XFILLER_126_1115 vdd vss gf180mcu_fd_sc_mcu7t5v0__fill_2
XFILLER_52_18 vdd vss gf180mcu_fd_sc_mcu7t5v0__fillcap_8
XFILLER_126_1137 vdd vss gf180mcu_fd_sc_mcu7t5v0__fill_2
XFILLER_126_1159 vdd vss gf180mcu_fd_sc_mcu7t5v0__fill_2
X_6776_ _2068_ _2091_ _2092_ vdd vss gf180mcu_fd_sc_mcu7t5v0__xnor2_1
XANTENNA__5196__A2 _0595_ vdd vss gf180mcu_fd_sc_mcu7t5v0__antenna
XFILLER_52_1312 vdd vss gf180mcu_fd_sc_mcu7t5v0__fill_1
XANTENNA__6393__A1 _1707_ vdd vss gf180mcu_fd_sc_mcu7t5v0__antenna
XFILLER_108_1560 vdd vss gf180mcu_fd_sc_mcu7t5v0__fillcap_16
XANTENNA_clkbuf_3_3__f_wb_clk_i_I clknet_0_wb_clk_i vdd vss gf180mcu_fd_sc_mcu7t5v0__antenna
XFILLER_52_1334 vdd vss gf180mcu_fd_sc_mcu7t5v0__fillcap_32
X_8515_ _3729_ _3732_ _0214_ vdd vss gf180mcu_fd_sc_mcu7t5v0__nor2_1
X_5727_ _4094_ _1131_ vdd vss gf180mcu_fd_sc_mcu7t5v0__clkbuf_1
XFILLER_109_728 vdd vss gf180mcu_fd_sc_mcu7t5v0__fillcap_32
XANTENNA__8134__A2 _4135_ vdd vss gf180mcu_fd_sc_mcu7t5v0__antenna
XFILLER_108_205 vdd vss gf180mcu_fd_sc_mcu7t5v0__fill_2
XFILLER_104_1457 vdd vss gf180mcu_fd_sc_mcu7t5v0__fillcap_64
X_8446_ _3433_ _1114_ _3426_ _3652_ _3665_ _3666_ vdd vss gf180mcu_fd_sc_mcu7t5v0__aoi221_1
X_5658_ _4116_ _0840_ _1063_ vdd vss gf180mcu_fd_sc_mcu7t5v0__nand2_1
XFILLER_87_1419 vdd vss gf180mcu_fd_sc_mcu7t5v0__fill_1
XFILLER_50_1080 vdd vss gf180mcu_fd_sc_mcu7t5v0__fill_2
X_4609_ _4189_ _4167_ _4203_ vdd vss gf180mcu_fd_sc_mcu7t5v0__nor2_1
X_8377_ _3597_ _3598_ _3599_ _3600_ vdd vss gf180mcu_fd_sc_mcu7t5v0__aoi21_1
XFILLER_102_1170 vdd vss gf180mcu_fd_sc_mcu7t5v0__fill_1
XFILLER_11_1064 vdd vss gf180mcu_fd_sc_mcu7t5v0__fill_1
X_5589_ _0993_ _0994_ _0995_ vdd vss gf180mcu_fd_sc_mcu7t5v0__nand2_1
XFILLER_85_1121 vdd vss gf180mcu_fd_sc_mcu7t5v0__fillcap_8
XFILLER_117_783 vdd vss gf180mcu_fd_sc_mcu7t5v0__fill_1
X_7328_ _2586_ _2587_ vdd vss gf180mcu_fd_sc_mcu7t5v0__buf_1
XFILLER_2_527 vdd vss gf180mcu_fd_sc_mcu7t5v0__fillcap_4
XFILLER_46_1105 vdd vss gf180mcu_fd_sc_mcu7t5v0__fill_2
XANTENNA__8437__A3 _3590_ vdd vss gf180mcu_fd_sc_mcu7t5v0__antenna
XFILLER_105_956 vdd vss gf180mcu_fd_sc_mcu7t5v0__fill_1
XFILLER_117_66 vdd vss gf180mcu_fd_sc_mcu7t5v0__fillcap_4
XFILLER_105_967 vdd vss gf180mcu_fd_sc_mcu7t5v0__fillcap_16
XANTENNA__6448__A2 _1771_ vdd vss gf180mcu_fd_sc_mcu7t5v0__antenna
XFILLER_77_26 vdd vss gf180mcu_fd_sc_mcu7t5v0__fill_2
XFILLER_78_818 vdd vss gf180mcu_fd_sc_mcu7t5v0__fillcap_32
XFILLER_89_144 vdd vss gf180mcu_fd_sc_mcu7t5v0__fillcap_4
X_7259_ _4405_ _2518_ _2519_ vdd vss gf180mcu_fd_sc_mcu7t5v0__nor2_1
XFILLER_132_775 vdd vss gf180mcu_fd_sc_mcu7t5v0__fillcap_4
XANTENNA__9123__D _0220_ vdd vss gf180mcu_fd_sc_mcu7t5v0__antenna
XFILLER_137_1277 vdd vss gf180mcu_fd_sc_mcu7t5v0__fill_1
XFILLER_77_59 vdd vss gf180mcu_fd_sc_mcu7t5v0__fill_1
XANTENNA__5120__A2 as2650.cycle\[8\] vdd vss gf180mcu_fd_sc_mcu7t5v0__antenna
XFILLER_58_531 vdd vss gf180mcu_fd_sc_mcu7t5v0__fill_1
XFILLER_58_542 vdd vss gf180mcu_fd_sc_mcu7t5v0__fill_2
XFILLER_115_1564 vdd vss gf180mcu_fd_sc_mcu7t5v0__fillcap_16
XFILLER_19_918 vdd vss gf180mcu_fd_sc_mcu7t5v0__fillcap_4
XTAP_3202 vdd vss gf180mcu_fd_sc_mcu7t5v0__filltie
XFILLER_100_661 vdd vss gf180mcu_fd_sc_mcu7t5v0__fill_2
XTAP_3213 vdd vss gf180mcu_fd_sc_mcu7t5v0__filltie
XFILLER_46_726 vdd vss gf180mcu_fd_sc_mcu7t5v0__fill_2
XFILLER_85_361 vdd vss gf180mcu_fd_sc_mcu7t5v0__fill_2
XTAP_3224 vdd vss gf180mcu_fd_sc_mcu7t5v0__filltie
XTAP_3235 vdd vss gf180mcu_fd_sc_mcu7t5v0__filltie
XTAP_2501 vdd vss gf180mcu_fd_sc_mcu7t5v0__filltie
XTAP_3246 vdd vss gf180mcu_fd_sc_mcu7t5v0__filltie
XFILLER_73_545 vdd vss gf180mcu_fd_sc_mcu7t5v0__fill_1
XANTENNA__5959__A1 _1331_ vdd vss gf180mcu_fd_sc_mcu7t5v0__antenna
XANTENNA_output37_I net37 vdd vss gf180mcu_fd_sc_mcu7t5v0__antenna
XTAP_3257 vdd vss gf180mcu_fd_sc_mcu7t5v0__filltie
XTAP_2512 vdd vss gf180mcu_fd_sc_mcu7t5v0__filltie
XFILLER_93_58 vdd vss gf180mcu_fd_sc_mcu7t5v0__fill_2
XTAP_3268 vdd vss gf180mcu_fd_sc_mcu7t5v0__filltie
XTAP_2523 vdd vss gf180mcu_fd_sc_mcu7t5v0__filltie
XTAP_3279 vdd vss gf180mcu_fd_sc_mcu7t5v0__filltie
XANTENNA__6335__I _1673_ vdd vss gf180mcu_fd_sc_mcu7t5v0__antenna
XTAP_2534 vdd vss gf180mcu_fd_sc_mcu7t5v0__filltie
XFILLER_73_567 vdd vss gf180mcu_fd_sc_mcu7t5v0__fill_1
XTAP_2545 vdd vss gf180mcu_fd_sc_mcu7t5v0__filltie
XTAP_1800 vdd vss gf180mcu_fd_sc_mcu7t5v0__filltie
XTAP_2556 vdd vss gf180mcu_fd_sc_mcu7t5v0__filltie
XTAP_1811 vdd vss gf180mcu_fd_sc_mcu7t5v0__filltie
XTAP_1822 vdd vss gf180mcu_fd_sc_mcu7t5v0__filltie
XFILLER_96_1272 vdd vss gf180mcu_fd_sc_mcu7t5v0__fillcap_8
XTAP_2567 vdd vss gf180mcu_fd_sc_mcu7t5v0__filltie
XTAP_2578 vdd vss gf180mcu_fd_sc_mcu7t5v0__filltie
XTAP_1833 vdd vss gf180mcu_fd_sc_mcu7t5v0__filltie
XTAP_2589 vdd vss gf180mcu_fd_sc_mcu7t5v0__filltie
XTAP_1844 vdd vss gf180mcu_fd_sc_mcu7t5v0__filltie
XTAP_1855 vdd vss gf180mcu_fd_sc_mcu7t5v0__filltie
XTAP_1866 vdd vss gf180mcu_fd_sc_mcu7t5v0__filltie
XFILLER_53_1109 vdd vss gf180mcu_fd_sc_mcu7t5v0__fill_2
XFILLER_144_1237 vdd vss gf180mcu_fd_sc_mcu7t5v0__fillcap_4
XFILLER_13_144 vdd vss gf180mcu_fd_sc_mcu7t5v0__fillcap_64
XFILLER_57_1289 vdd vss gf180mcu_fd_sc_mcu7t5v0__fill_2
XTAP_1877 vdd vss gf180mcu_fd_sc_mcu7t5v0__filltie
XFILLER_92_1169 vdd vss gf180mcu_fd_sc_mcu7t5v0__fill_2
XANTENNA__8550__I _2693_ vdd vss gf180mcu_fd_sc_mcu7t5v0__antenna
XTAP_1888 vdd vss gf180mcu_fd_sc_mcu7t5v0__filltie
XANTENNA__6384__A1 _1465_ vdd vss gf180mcu_fd_sc_mcu7t5v0__antenna
XTAP_1899 vdd vss gf180mcu_fd_sc_mcu7t5v0__filltie
XFILLER_144_1259 vdd vss gf180mcu_fd_sc_mcu7t5v0__fill_1
XFILLER_139_330 vdd vss gf180mcu_fd_sc_mcu7t5v0__fill_2
XFILLER_9_137 vdd vss gf180mcu_fd_sc_mcu7t5v0__fillcap_4
XFILLER_6_811 vdd vss gf180mcu_fd_sc_mcu7t5v0__fillcap_4
XANTENNA__6136__A1 _1489_ vdd vss gf180mcu_fd_sc_mcu7t5v0__antenna
XFILLER_127_558 vdd vss gf180mcu_fd_sc_mcu7t5v0__fillcap_8
XANTENNA__7884__A1 _3128_ vdd vss gf180mcu_fd_sc_mcu7t5v0__antenna
XFILLER_115_709 vdd vss gf180mcu_fd_sc_mcu7t5v0__fill_1
XANTENNA__6687__A2 _2003_ vdd vss gf180mcu_fd_sc_mcu7t5v0__antenna
XFILLER_138_1008 vdd vss gf180mcu_fd_sc_mcu7t5v0__fill_2
XFILLER_5_354 vdd vss gf180mcu_fd_sc_mcu7t5v0__fill_1
XFILLER_68_1330 vdd vss gf180mcu_fd_sc_mcu7t5v0__fill_1
XANTENNA__4698__A1 _4259_ vdd vss gf180mcu_fd_sc_mcu7t5v0__antenna
XFILLER_142_528 vdd vss gf180mcu_fd_sc_mcu7t5v0__fill_1
XFILLER_64_1205 vdd vss gf180mcu_fd_sc_mcu7t5v0__fill_2
XFILLER_68_1374 vdd vss gf180mcu_fd_sc_mcu7t5v0__fill_2
XANTENNA__7636__A1 net35 vdd vss gf180mcu_fd_sc_mcu7t5v0__antenna
XFILLER_122_230 vdd vss gf180mcu_fd_sc_mcu7t5v0__fill_2
XFILLER_9_1419 vdd vss gf180mcu_fd_sc_mcu7t5v0__fill_1
XFILLER_122_241 vdd vss gf180mcu_fd_sc_mcu7t5v0__fill_2
XFILLER_116_1306 vdd vss gf180mcu_fd_sc_mcu7t5v0__fillcap_4
XFILLER_64_1238 vdd vss gf180mcu_fd_sc_mcu7t5v0__fillcap_4
XANTENNA__8833__B1 _3984_ vdd vss gf180mcu_fd_sc_mcu7t5v0__antenna
XANTENNA__9033__D _0144_ vdd vss gf180mcu_fd_sc_mcu7t5v0__antenna
XFILLER_123_786 vdd vss gf180mcu_fd_sc_mcu7t5v0__fillcap_4
XFILLER_122_285 vdd vss gf180mcu_fd_sc_mcu7t5v0__fill_2
XFILLER_27_1060 vdd vss gf180mcu_fd_sc_mcu7t5v0__fillcap_4
XANTENNA__5111__A2 _0519_ vdd vss gf180mcu_fd_sc_mcu7t5v0__antenna
XFILLER_96_659 vdd vss gf180mcu_fd_sc_mcu7t5v0__fillcap_8
XFILLER_42_1525 vdd vss gf180mcu_fd_sc_mcu7t5v0__fill_1
XFILLER_49_531 vdd vss gf180mcu_fd_sc_mcu7t5v0__fillcap_16
XFILLER_67_70 vdd vss gf180mcu_fd_sc_mcu7t5v0__fill_1
XANTENNA__8725__I _0741_ vdd vss gf180mcu_fd_sc_mcu7t5v0__antenna
XFILLER_49_564 vdd vss gf180mcu_fd_sc_mcu7t5v0__fill_1
XFILLER_77_873 vdd vss gf180mcu_fd_sc_mcu7t5v0__fillcap_8
Xclkbuf_leaf_60_wb_clk_i clknet_3_5__leaf_wb_clk_i clknet_leaf_60_wb_clk_i vdd vss
+ gf180mcu_fd_sc_mcu7t5v0__clkbuf_16
XANTENNA__7939__A2 _1499_ vdd vss gf180mcu_fd_sc_mcu7t5v0__antenna
XANTENNA__4870__A1 _4226_ vdd vss gf180mcu_fd_sc_mcu7t5v0__antenna
XFILLER_114_1085 vdd vss gf180mcu_fd_sc_mcu7t5v0__fillcap_8
XFILLER_92_832 vdd vss gf180mcu_fd_sc_mcu7t5v0__fillcap_16
XANTENNA__8061__A1 _4345_ vdd vss gf180mcu_fd_sc_mcu7t5v0__antenna
XFILLER_64_534 vdd vss gf180mcu_fd_sc_mcu7t5v0__fill_1
XFILLER_36_258 vdd vss gf180mcu_fd_sc_mcu7t5v0__fill_2
X_4960_ _0383_ _0293_ _0384_ vdd vss gf180mcu_fd_sc_mcu7t5v0__nand2_1
XFILLER_64_589 vdd vss gf180mcu_fd_sc_mcu7t5v0__fillcap_8
XANTENNA__4622__A1 _4158_ vdd vss gf180mcu_fd_sc_mcu7t5v0__antenna
XFILLER_91_386 vdd vss gf180mcu_fd_sc_mcu7t5v0__fill_1
XFILLER_45_792 vdd vss gf180mcu_fd_sc_mcu7t5v0__fillcap_4
XFILLER_51_228 vdd vss gf180mcu_fd_sc_mcu7t5v0__fill_1
XFILLER_60_740 vdd vss gf180mcu_fd_sc_mcu7t5v0__fill_2
X_4891_ _4342_ _0320_ vdd vss gf180mcu_fd_sc_mcu7t5v0__clkbuf_1
XANTENNA__8364__A2 _3027_ vdd vss gf180mcu_fd_sc_mcu7t5v0__antenna
XFILLER_71_1209 vdd vss gf180mcu_fd_sc_mcu7t5v0__fill_1
X_6630_ _1863_ _1866_ _1877_ _1947_ vdd vss gf180mcu_fd_sc_mcu7t5v0__or3_1
XFILLER_60_762 vdd vss gf180mcu_fd_sc_mcu7t5v0__fillcap_4
XFILLER_60_773 vdd vss gf180mcu_fd_sc_mcu7t5v0__fill_2
XFILLER_60_795 vdd vss gf180mcu_fd_sc_mcu7t5v0__fill_1
XFILLER_34_1031 vdd vss gf180mcu_fd_sc_mcu7t5v0__fillcap_64
XFILLER_80_2 vdd vss gf180mcu_fd_sc_mcu7t5v0__fillcap_16
X_6561_ _1867_ _1877_ _1878_ vdd vss gf180mcu_fd_sc_mcu7t5v0__xnor2_1
X_8300_ _2861_ _3511_ _3525_ _3526_ vdd vss gf180mcu_fd_sc_mcu7t5v0__nor3_1
X_5512_ _0918_ _0587_ _0919_ vdd vss gf180mcu_fd_sc_mcu7t5v0__nand2_1
XANTENNA__6390__A4 _1727_ vdd vss gf180mcu_fd_sc_mcu7t5v0__antenna
XFILLER_121_1045 vdd vss gf180mcu_fd_sc_mcu7t5v0__fillcap_8
X_6492_ _4357_ _4374_ _1808_ _1809_ vdd vss gf180mcu_fd_sc_mcu7t5v0__nand3_1
XFILLER_121_1067 vdd vss gf180mcu_fd_sc_mcu7t5v0__fill_1
X_8231_ _3422_ _3425_ _3458_ _3459_ vdd vss gf180mcu_fd_sc_mcu7t5v0__aoi21_1
XFILLER_69_1127 vdd vss gf180mcu_fd_sc_mcu7t5v0__fill_2
X_5443_ _0771_ _0767_ _0851_ vdd vss gf180mcu_fd_sc_mcu7t5v0__nor2_1
XFILLER_69_1138 vdd vss gf180mcu_fd_sc_mcu7t5v0__fill_2
XFILLER_69_1149 vdd vss gf180mcu_fd_sc_mcu7t5v0__fill_2
XFILLER_105_208 vdd vss gf180mcu_fd_sc_mcu7t5v0__fill_2
XFILLER_103_1490 vdd vss gf180mcu_fd_sc_mcu7t5v0__fill_1
X_8162_ _3221_ _3357_ _3390_ _3391_ _3392_ vdd vss gf180mcu_fd_sc_mcu7t5v0__aoi211_1
XANTENNA__5350__A2 _0619_ vdd vss gf180mcu_fd_sc_mcu7t5v0__antenna
X_5374_ _0548_ _0783_ vdd vss gf180mcu_fd_sc_mcu7t5v0__clkbuf_1
XFILLER_113_230 vdd vss gf180mcu_fd_sc_mcu7t5v0__fill_2
X_7113_ _1789_ _2392_ _2396_ _0148_ vdd vss gf180mcu_fd_sc_mcu7t5v0__aoi21_1
XFILLER_102_904 vdd vss gf180mcu_fd_sc_mcu7t5v0__fill_2
XFILLER_87_604 vdd vss gf180mcu_fd_sc_mcu7t5v0__fill_2
X_8093_ _2369_ _2666_ _3323_ _3324_ vdd vss gf180mcu_fd_sc_mcu7t5v0__aoi21_1
XFILLER_113_252 vdd vss gf180mcu_fd_sc_mcu7t5v0__fill_2
XFILLER_82_1349 vdd vss gf180mcu_fd_sc_mcu7t5v0__fill_2
XFILLER_99_475 vdd vss gf180mcu_fd_sc_mcu7t5v0__fill_2
X_7044_ _4360_ _2335_ _2336_ _0389_ _2337_ vdd vss gf180mcu_fd_sc_mcu7t5v0__nor4_1
XFILLER_101_425 vdd vss gf180mcu_fd_sc_mcu7t5v0__fill_1
XFILLER_59_339 vdd vss gf180mcu_fd_sc_mcu7t5v0__fill_2
XFILLER_68_862 vdd vss gf180mcu_fd_sc_mcu7t5v0__fillcap_8
XFILLER_86_158 vdd vss gf180mcu_fd_sc_mcu7t5v0__fill_2
XANTENNA__8635__I _3833_ vdd vss gf180mcu_fd_sc_mcu7t5v0__antenna
XFILLER_110_981 vdd vss gf180mcu_fd_sc_mcu7t5v0__fill_2
XANTENNA__4861__A1 _4446_ vdd vss gf180mcu_fd_sc_mcu7t5v0__antenna
XANTENNA__8052__A1 _0784_ vdd vss gf180mcu_fd_sc_mcu7t5v0__antenna
XFILLER_132_1196 vdd vss gf180mcu_fd_sc_mcu7t5v0__fill_1
XFILLER_55_545 vdd vss gf180mcu_fd_sc_mcu7t5v0__fill_2
XFILLER_83_854 vdd vss gf180mcu_fd_sc_mcu7t5v0__fillcap_32
X_8995_ _0106_ clknet_leaf_67_wb_clk_i as2650.stack\[0\]\[13\] vdd vss gf180mcu_fd_sc_mcu7t5v0__dffq_1
XFILLER_55_567 vdd vss gf180mcu_fd_sc_mcu7t5v0__fill_1
XFILLER_110_1450 vdd vss gf180mcu_fd_sc_mcu7t5v0__fillcap_4
XANTENNA__6155__I _4342_ vdd vss gf180mcu_fd_sc_mcu7t5v0__antenna
XFILLER_58_1521 vdd vss gf180mcu_fd_sc_mcu7t5v0__fillcap_4
XFILLER_82_364 vdd vss gf180mcu_fd_sc_mcu7t5v0__fill_2
XFILLER_103_79 vdd vss gf180mcu_fd_sc_mcu7t5v0__fill_2
XTAP_1107 vdd vss gf180mcu_fd_sc_mcu7t5v0__filltie
X_7946_ _3165_ _3186_ vdd vss gf180mcu_fd_sc_mcu7t5v0__clkbuf_2
XTAP_1118 vdd vss gf180mcu_fd_sc_mcu7t5v0__filltie
XTAP_1129 vdd vss gf180mcu_fd_sc_mcu7t5v0__filltie
XFILLER_82_397 vdd vss gf180mcu_fd_sc_mcu7t5v0__fill_2
X_7877_ _0342_ _4241_ _1252_ _3123_ vdd vss gf180mcu_fd_sc_mcu7t5v0__nor3_1
XFILLER_58_1576 vdd vss gf180mcu_fd_sc_mcu7t5v0__fillcap_4
XANTENNA__5994__I _1371_ vdd vss gf180mcu_fd_sc_mcu7t5v0__antenna
XANTENNA__8355__A2 _3562_ vdd vss gf180mcu_fd_sc_mcu7t5v0__antenna
XFILLER_50_250 vdd vss gf180mcu_fd_sc_mcu7t5v0__fillcap_4
X_6828_ as2650.r123_2\[2\]\[2\] _2112_ _2141_ _2142_ _2143_ vdd vss gf180mcu_fd_sc_mcu7t5v0__aoi22_1
XANTENNA__6366__A1 _4387_ vdd vss gf180mcu_fd_sc_mcu7t5v0__antenna
XFILLER_137_801 vdd vss gf180mcu_fd_sc_mcu7t5v0__fill_2
XANTENNA__4916__A2 _0340_ vdd vss gf180mcu_fd_sc_mcu7t5v0__antenna
XFILLER_104_1210 vdd vss gf180mcu_fd_sc_mcu7t5v0__fill_2
X_6759_ _2073_ _2074_ _2075_ vdd vss gf180mcu_fd_sc_mcu7t5v0__xor2_1
XANTENNA__9118__D _0215_ vdd vss gf180mcu_fd_sc_mcu7t5v0__antenna
XFILLER_17_1273 vdd vss gf180mcu_fd_sc_mcu7t5v0__fillcap_4
XFILLER_52_1153 vdd vss gf180mcu_fd_sc_mcu7t5v0__fillcap_4
XFILLER_137_823 vdd vss gf180mcu_fd_sc_mcu7t5v0__fill_2
XFILLER_87_1205 vdd vss gf180mcu_fd_sc_mcu7t5v0__fill_2
X_8429_ _1422_ _3622_ _3649_ vdd vss gf180mcu_fd_sc_mcu7t5v0__nor2_1
XANTENNA__7714__I as2650.pc\[9\] vdd vss gf180mcu_fd_sc_mcu7t5v0__antenna
XANTENNA__4519__I2 as2650.r123_2\[1\]\[5\] vdd vss gf180mcu_fd_sc_mcu7t5v0__antenna
XFILLER_88_14 vdd vss gf180mcu_fd_sc_mcu7t5v0__fill_1
XFILLER_88_25 vdd vss gf180mcu_fd_sc_mcu7t5v0__fill_2
XFILLER_3_847 vdd vss gf180mcu_fd_sc_mcu7t5v0__fillcap_4
XANTENNA__7618__A1 _0441_ vdd vss gf180mcu_fd_sc_mcu7t5v0__antenna
XANTENNA__7618__B2 _2714_ vdd vss gf180mcu_fd_sc_mcu7t5v0__antenna
XFILLER_132_550 vdd vss gf180mcu_fd_sc_mcu7t5v0__fillcap_8
XFILLER_104_241 vdd vss gf180mcu_fd_sc_mcu7t5v0__fill_2
XFILLER_104_252 vdd vss gf180mcu_fd_sc_mcu7t5v0__fill_1
XANTENNA__5234__I _0643_ vdd vss gf180mcu_fd_sc_mcu7t5v0__antenna
XFILLER_104_263 vdd vss gf180mcu_fd_sc_mcu7t5v0__fillcap_4
XFILLER_120_723 vdd vss gf180mcu_fd_sc_mcu7t5v0__fill_2
XFILLER_144_53 vdd vss gf180mcu_fd_sc_mcu7t5v0__fillcap_4
XANTENNA__7094__A2 _2363_ vdd vss gf180mcu_fd_sc_mcu7t5v0__antenna
XFILLER_59_840 vdd vss gf180mcu_fd_sc_mcu7t5v0__fill_1
XFILLER_63_1260 vdd vss gf180mcu_fd_sc_mcu7t5v0__fill_2
XFILLER_59_851 vdd vss gf180mcu_fd_sc_mcu7t5v0__fill_1
XFILLER_144_97 vdd vss gf180mcu_fd_sc_mcu7t5v0__fill_2
XFILLER_24_1244 vdd vss gf180mcu_fd_sc_mcu7t5v0__fillcap_64
XFILLER_59_895 vdd vss gf180mcu_fd_sc_mcu7t5v0__fill_2
XFILLER_98_1312 vdd vss gf180mcu_fd_sc_mcu7t5v0__fill_1
XTAP_3010 vdd vss gf180mcu_fd_sc_mcu7t5v0__filltie
XFILLER_58_372 vdd vss gf180mcu_fd_sc_mcu7t5v0__fill_2
XFILLER_111_1225 vdd vss gf180mcu_fd_sc_mcu7t5v0__fill_2
XTAP_3021 vdd vss gf180mcu_fd_sc_mcu7t5v0__filltie
XFILLER_46_534 vdd vss gf180mcu_fd_sc_mcu7t5v0__fill_1
XFILLER_58_394 vdd vss gf180mcu_fd_sc_mcu7t5v0__fill_1
XFILLER_92_139 vdd vss gf180mcu_fd_sc_mcu7t5v0__fill_2
XTAP_3032 vdd vss gf180mcu_fd_sc_mcu7t5v0__filltie
XFILLER_111_1247 vdd vss gf180mcu_fd_sc_mcu7t5v0__fill_2
XTAP_3043 vdd vss gf180mcu_fd_sc_mcu7t5v0__filltie
XFILLER_41_1580 vdd vss gf180mcu_fd_sc_mcu7t5v0__fill_1
XFILLER_37_73 vdd vss gf180mcu_fd_sc_mcu7t5v0__fillcap_16
XFILLER_18_247 vdd vss gf180mcu_fd_sc_mcu7t5v0__fill_1
XFILLER_74_865 vdd vss gf180mcu_fd_sc_mcu7t5v0__fill_2
XTAP_3054 vdd vss gf180mcu_fd_sc_mcu7t5v0__filltie
XFILLER_59_1318 vdd vss gf180mcu_fd_sc_mcu7t5v0__fill_2
XANTENNA__8972__CLK clknet_leaf_15_wb_clk_i vdd vss gf180mcu_fd_sc_mcu7t5v0__antenna
XFILLER_2_1040 vdd vss gf180mcu_fd_sc_mcu7t5v0__fillcap_32