* NGSPICE file created from wrapped_as2650.ext - technology: gf180mcuC

* Black-box entry subcircuit for gf180mcu_fd_sc_mcu7t5v0__fill_2 abstract view
.subckt gf180mcu_fd_sc_mcu7t5v0__fill_2 VDD VSS
.ends

* Black-box entry subcircuit for gf180mcu_fd_sc_mcu7t5v0__fillcap_4 abstract view
.subckt gf180mcu_fd_sc_mcu7t5v0__fillcap_4 VDD VSS
.ends

* Black-box entry subcircuit for gf180mcu_fd_sc_mcu7t5v0__fillcap_64 abstract view
.subckt gf180mcu_fd_sc_mcu7t5v0__fillcap_64 VDD VSS
.ends

* Black-box entry subcircuit for gf180mcu_fd_sc_mcu7t5v0__fillcap_32 abstract view
.subckt gf180mcu_fd_sc_mcu7t5v0__fillcap_32 VDD VSS
.ends

* Black-box entry subcircuit for gf180mcu_fd_sc_mcu7t5v0__fill_1 abstract view
.subckt gf180mcu_fd_sc_mcu7t5v0__fill_1 VDD VSS
.ends

* Black-box entry subcircuit for gf180mcu_fd_sc_mcu7t5v0__oai22_1 abstract view
.subckt gf180mcu_fd_sc_mcu7t5v0__oai22_1 A1 A2 B1 B2 ZN VDD VSS
.ends

* Black-box entry subcircuit for gf180mcu_fd_sc_mcu7t5v0__aoi21_4 abstract view
.subckt gf180mcu_fd_sc_mcu7t5v0__aoi21_4 A1 A2 B ZN VDD VSS
.ends

* Black-box entry subcircuit for gf180mcu_fd_sc_mcu7t5v0__aoi211_1 abstract view
.subckt gf180mcu_fd_sc_mcu7t5v0__aoi211_1 A1 A2 B C ZN VDD VSS
.ends

* Black-box entry subcircuit for gf180mcu_fd_sc_mcu7t5v0__antenna abstract view
.subckt gf180mcu_fd_sc_mcu7t5v0__antenna I VDD VSS
.ends

* Black-box entry subcircuit for gf180mcu_fd_sc_mcu7t5v0__xnor2_1 abstract view
.subckt gf180mcu_fd_sc_mcu7t5v0__xnor2_1 A1 A2 ZN VDD VSS
.ends

* Black-box entry subcircuit for gf180mcu_fd_sc_mcu7t5v0__fillcap_16 abstract view
.subckt gf180mcu_fd_sc_mcu7t5v0__fillcap_16 VDD VSS
.ends

* Black-box entry subcircuit for gf180mcu_fd_sc_mcu7t5v0__nand2_1 abstract view
.subckt gf180mcu_fd_sc_mcu7t5v0__nand2_1 A1 A2 ZN VDD VSS
.ends

* Black-box entry subcircuit for gf180mcu_fd_sc_mcu7t5v0__clkbuf_1 abstract view
.subckt gf180mcu_fd_sc_mcu7t5v0__clkbuf_1 I Z VDD VSS
.ends

* Black-box entry subcircuit for gf180mcu_fd_sc_mcu7t5v0__or4_1 abstract view
.subckt gf180mcu_fd_sc_mcu7t5v0__or4_1 A1 A2 A3 A4 Z VDD VSS
.ends

* Black-box entry subcircuit for gf180mcu_fd_sc_mcu7t5v0__fillcap_8 abstract view
.subckt gf180mcu_fd_sc_mcu7t5v0__fillcap_8 VDD VSS
.ends

* Black-box entry subcircuit for gf180mcu_fd_sc_mcu7t5v0__dffq_1 abstract view
.subckt gf180mcu_fd_sc_mcu7t5v0__dffq_1 D CLK Q VDD VSS
.ends

* Black-box entry subcircuit for gf180mcu_fd_sc_mcu7t5v0__filltie abstract view
.subckt gf180mcu_fd_sc_mcu7t5v0__filltie VDD VSS
.ends

* Black-box entry subcircuit for gf180mcu_fd_sc_mcu7t5v0__clkbuf_16 abstract view
.subckt gf180mcu_fd_sc_mcu7t5v0__clkbuf_16 I Z VDD VSS
.ends

* Black-box entry subcircuit for gf180mcu_fd_sc_mcu7t5v0__buf_1 abstract view
.subckt gf180mcu_fd_sc_mcu7t5v0__buf_1 I Z VDD VSS
.ends

* Black-box entry subcircuit for gf180mcu_fd_sc_mcu7t5v0__oai211_1 abstract view
.subckt gf180mcu_fd_sc_mcu7t5v0__oai211_1 A1 A2 B C ZN VDD VSS
.ends

* Black-box entry subcircuit for gf180mcu_fd_sc_mcu7t5v0__oai21_1 abstract view
.subckt gf180mcu_fd_sc_mcu7t5v0__oai21_1 A1 A2 B ZN VDD VSS
.ends

* Black-box entry subcircuit for gf180mcu_fd_sc_mcu7t5v0__nand4_1 abstract view
.subckt gf180mcu_fd_sc_mcu7t5v0__nand4_1 A1 A2 A3 A4 ZN VDD VSS
.ends

* Black-box entry subcircuit for gf180mcu_fd_sc_mcu7t5v0__oai221_1 abstract view
.subckt gf180mcu_fd_sc_mcu7t5v0__oai221_1 A1 A2 B1 B2 C ZN VDD VSS
.ends

* Black-box entry subcircuit for gf180mcu_fd_sc_mcu7t5v0__and2_1 abstract view
.subckt gf180mcu_fd_sc_mcu7t5v0__and2_1 A1 A2 Z VDD VSS
.ends

* Black-box entry subcircuit for gf180mcu_fd_sc_mcu7t5v0__aoi21_1 abstract view
.subckt gf180mcu_fd_sc_mcu7t5v0__aoi21_1 A1 A2 B ZN VDD VSS
.ends

* Black-box entry subcircuit for gf180mcu_fd_sc_mcu7t5v0__xor2_1 abstract view
.subckt gf180mcu_fd_sc_mcu7t5v0__xor2_1 A1 A2 Z VDD VSS
.ends

* Black-box entry subcircuit for gf180mcu_fd_sc_mcu7t5v0__oai21_2 abstract view
.subckt gf180mcu_fd_sc_mcu7t5v0__oai21_2 A1 A2 B ZN VDD VSS
.ends

* Black-box entry subcircuit for gf180mcu_fd_sc_mcu7t5v0__mux2_2 abstract view
.subckt gf180mcu_fd_sc_mcu7t5v0__mux2_2 I0 I1 S Z VDD VSS
.ends

* Black-box entry subcircuit for gf180mcu_fd_sc_mcu7t5v0__nand3_1 abstract view
.subckt gf180mcu_fd_sc_mcu7t5v0__nand3_1 A1 A2 A3 ZN VDD VSS
.ends

* Black-box entry subcircuit for gf180mcu_fd_sc_mcu7t5v0__clkbuf_2 abstract view
.subckt gf180mcu_fd_sc_mcu7t5v0__clkbuf_2 I Z VDD VSS
.ends

* Black-box entry subcircuit for gf180mcu_fd_sc_mcu7t5v0__nor2_1 abstract view
.subckt gf180mcu_fd_sc_mcu7t5v0__nor2_1 A1 A2 ZN VDD VSS
.ends

* Black-box entry subcircuit for gf180mcu_fd_sc_mcu7t5v0__nor4_1 abstract view
.subckt gf180mcu_fd_sc_mcu7t5v0__nor4_1 A1 A2 A3 A4 ZN VDD VSS
.ends

* Black-box entry subcircuit for gf180mcu_fd_sc_mcu7t5v0__aoi22_1 abstract view
.subckt gf180mcu_fd_sc_mcu7t5v0__aoi22_1 A1 A2 B1 B2 ZN VDD VSS
.ends

* Black-box entry subcircuit for gf180mcu_fd_sc_mcu7t5v0__clkinv_1 abstract view
.subckt gf180mcu_fd_sc_mcu7t5v0__clkinv_1 I ZN VDD VSS
.ends

* Black-box entry subcircuit for gf180mcu_fd_sc_mcu7t5v0__aoi21_2 abstract view
.subckt gf180mcu_fd_sc_mcu7t5v0__aoi21_2 A1 A2 B ZN VDD VSS
.ends

* Black-box entry subcircuit for gf180mcu_fd_sc_mcu7t5v0__nor3_1 abstract view
.subckt gf180mcu_fd_sc_mcu7t5v0__nor3_1 A1 A2 A3 ZN VDD VSS
.ends

* Black-box entry subcircuit for gf180mcu_fd_sc_mcu7t5v0__nand3_2 abstract view
.subckt gf180mcu_fd_sc_mcu7t5v0__nand3_2 A1 A2 A3 ZN VDD VSS
.ends

* Black-box entry subcircuit for gf180mcu_fd_sc_mcu7t5v0__nor4_4 abstract view
.subckt gf180mcu_fd_sc_mcu7t5v0__nor4_4 A1 A2 A3 A4 ZN VDD VSS
.ends

* Black-box entry subcircuit for gf180mcu_fd_sc_mcu7t5v0__clkbuf_3 abstract view
.subckt gf180mcu_fd_sc_mcu7t5v0__clkbuf_3 I Z VDD VSS
.ends

* Black-box entry subcircuit for gf180mcu_fd_sc_mcu7t5v0__endcap abstract view
.subckt gf180mcu_fd_sc_mcu7t5v0__endcap VDD VSS
.ends

* Black-box entry subcircuit for gf180mcu_fd_sc_mcu7t5v0__nand4_4 abstract view
.subckt gf180mcu_fd_sc_mcu7t5v0__nand4_4 A1 A2 A3 A4 ZN VDD VSS
.ends

* Black-box entry subcircuit for gf180mcu_fd_sc_mcu7t5v0__nand4_2 abstract view
.subckt gf180mcu_fd_sc_mcu7t5v0__nand4_2 A1 A2 A3 A4 ZN VDD VSS
.ends

* Black-box entry subcircuit for gf180mcu_fd_sc_mcu7t5v0__oai22_2 abstract view
.subckt gf180mcu_fd_sc_mcu7t5v0__oai22_2 A1 A2 B1 B2 ZN VDD VSS
.ends

* Black-box entry subcircuit for gf180mcu_fd_sc_mcu7t5v0__or2_1 abstract view
.subckt gf180mcu_fd_sc_mcu7t5v0__or2_1 A1 A2 Z VDD VSS
.ends

* Black-box entry subcircuit for gf180mcu_fd_sc_mcu7t5v0__oai31_2 abstract view
.subckt gf180mcu_fd_sc_mcu7t5v0__oai31_2 A1 A2 A3 B ZN VDD VSS
.ends

* Black-box entry subcircuit for gf180mcu_fd_sc_mcu7t5v0__xor3_1 abstract view
.subckt gf180mcu_fd_sc_mcu7t5v0__xor3_1 A1 A2 A3 Z VDD VSS
.ends

* Black-box entry subcircuit for gf180mcu_fd_sc_mcu7t5v0__oai31_1 abstract view
.subckt gf180mcu_fd_sc_mcu7t5v0__oai31_1 A1 A2 A3 B ZN VDD VSS
.ends

* Black-box entry subcircuit for gf180mcu_fd_sc_mcu7t5v0__aoi221_4 abstract view
.subckt gf180mcu_fd_sc_mcu7t5v0__aoi221_4 A1 A2 B1 B2 C ZN VDD VSS
.ends

* Black-box entry subcircuit for gf180mcu_fd_sc_mcu7t5v0__oai221_2 abstract view
.subckt gf180mcu_fd_sc_mcu7t5v0__oai221_2 A1 A2 B1 B2 C ZN VDD VSS
.ends

* Black-box entry subcircuit for gf180mcu_fd_sc_mcu7t5v0__nand2_2 abstract view
.subckt gf180mcu_fd_sc_mcu7t5v0__nand2_2 A1 A2 ZN VDD VSS
.ends

* Black-box entry subcircuit for gf180mcu_fd_sc_mcu7t5v0__nor4_2 abstract view
.subckt gf180mcu_fd_sc_mcu7t5v0__nor4_2 A1 A2 A3 A4 ZN VDD VSS
.ends

* Black-box entry subcircuit for gf180mcu_fd_sc_mcu7t5v0__aoi221_2 abstract view
.subckt gf180mcu_fd_sc_mcu7t5v0__aoi221_2 A1 A2 B1 B2 C ZN VDD VSS
.ends

* Black-box entry subcircuit for gf180mcu_fd_sc_mcu7t5v0__aoi221_1 abstract view
.subckt gf180mcu_fd_sc_mcu7t5v0__aoi221_1 A1 A2 B1 B2 C ZN VDD VSS
.ends

* Black-box entry subcircuit for gf180mcu_fd_sc_mcu7t5v0__inv_1 abstract view
.subckt gf180mcu_fd_sc_mcu7t5v0__inv_1 I ZN VDD VSS
.ends

* Black-box entry subcircuit for gf180mcu_fd_sc_mcu7t5v0__or3_1 abstract view
.subckt gf180mcu_fd_sc_mcu7t5v0__or3_1 A1 A2 A3 Z VDD VSS
.ends

* Black-box entry subcircuit for gf180mcu_fd_sc_mcu7t5v0__clkbuf_8 abstract view
.subckt gf180mcu_fd_sc_mcu7t5v0__clkbuf_8 I Z VDD VSS
.ends

* Black-box entry subcircuit for gf180mcu_fd_sc_mcu7t5v0__nor3_2 abstract view
.subckt gf180mcu_fd_sc_mcu7t5v0__nor3_2 A1 A2 A3 ZN VDD VSS
.ends

* Black-box entry subcircuit for gf180mcu_fd_sc_mcu7t5v0__nor2_2 abstract view
.subckt gf180mcu_fd_sc_mcu7t5v0__nor2_2 A1 A2 ZN VDD VSS
.ends

* Black-box entry subcircuit for gf180mcu_fd_sc_mcu7t5v0__and4_1 abstract view
.subckt gf180mcu_fd_sc_mcu7t5v0__and4_1 A1 A2 A3 A4 Z VDD VSS
.ends

* Black-box entry subcircuit for gf180mcu_fd_sc_mcu7t5v0__and3_1 abstract view
.subckt gf180mcu_fd_sc_mcu7t5v0__and3_1 A1 A2 A3 Z VDD VSS
.ends

* Black-box entry subcircuit for gf180mcu_fd_sc_mcu7t5v0__nor3_4 abstract view
.subckt gf180mcu_fd_sc_mcu7t5v0__nor3_4 A1 A2 A3 ZN VDD VSS
.ends

* Black-box entry subcircuit for gf180mcu_fd_sc_mcu7t5v0__oai211_2 abstract view
.subckt gf180mcu_fd_sc_mcu7t5v0__oai211_2 A1 A2 B C ZN VDD VSS
.ends

* Black-box entry subcircuit for gf180mcu_fd_sc_mcu7t5v0__aoi211_2 abstract view
.subckt gf180mcu_fd_sc_mcu7t5v0__aoi211_2 A1 A2 B C ZN VDD VSS
.ends

* Black-box entry subcircuit for gf180mcu_fd_sc_mcu7t5v0__tiel abstract view
.subckt gf180mcu_fd_sc_mcu7t5v0__tiel ZN VDD VSS
.ends

* Black-box entry subcircuit for gf180mcu_fd_sc_mcu7t5v0__buf_2 abstract view
.subckt gf180mcu_fd_sc_mcu7t5v0__buf_2 I Z VDD VSS
.ends

* Black-box entry subcircuit for gf180mcu_fd_sc_mcu7t5v0__aoi222_2 abstract view
.subckt gf180mcu_fd_sc_mcu7t5v0__aoi222_2 A1 A2 B1 B2 C1 C2 ZN VDD VSS
.ends

* Black-box entry subcircuit for gf180mcu_fd_sc_mcu7t5v0__tieh abstract view
.subckt gf180mcu_fd_sc_mcu7t5v0__tieh Z VDD VSS
.ends

* Black-box entry subcircuit for gf180mcu_fd_sc_mcu7t5v0__dlyc_1 abstract view
.subckt gf180mcu_fd_sc_mcu7t5v0__dlyc_1 I Z VDD VSS
.ends

* Black-box entry subcircuit for gf180mcu_fd_sc_mcu7t5v0__aoi222_1 abstract view
.subckt gf180mcu_fd_sc_mcu7t5v0__aoi222_1 A1 A2 B1 B2 C1 C2 ZN VDD VSS
.ends

* Black-box entry subcircuit for gf180mcu_fd_sc_mcu7t5v0__dlyb_1 abstract view
.subckt gf180mcu_fd_sc_mcu7t5v0__dlyb_1 I Z VDD VSS
.ends

* Black-box entry subcircuit for gf180mcu_fd_sc_mcu7t5v0__mux4_1 abstract view
.subckt gf180mcu_fd_sc_mcu7t5v0__mux4_1 I0 I1 I2 I3 S0 S1 Z VDD VSS
.ends

* Black-box entry subcircuit for gf180mcu_fd_sc_mcu7t5v0__nor2_4 abstract view
.subckt gf180mcu_fd_sc_mcu7t5v0__nor2_4 A1 A2 ZN VDD VSS
.ends

* Black-box entry subcircuit for gf180mcu_fd_sc_mcu7t5v0__oai211_4 abstract view
.subckt gf180mcu_fd_sc_mcu7t5v0__oai211_4 A1 A2 B C ZN VDD VSS
.ends

* Black-box entry subcircuit for gf180mcu_fd_sc_mcu7t5v0__dffq_2 abstract view
.subckt gf180mcu_fd_sc_mcu7t5v0__dffq_2 D CLK Q VDD VSS
.ends

* Black-box entry subcircuit for gf180mcu_fd_sc_mcu7t5v0__aoi211_4 abstract view
.subckt gf180mcu_fd_sc_mcu7t5v0__aoi211_4 A1 A2 B C ZN VDD VSS
.ends

* Black-box entry subcircuit for gf180mcu_fd_sc_mcu7t5v0__xor2_2 abstract view
.subckt gf180mcu_fd_sc_mcu7t5v0__xor2_2 A1 A2 Z VDD VSS
.ends

* Black-box entry subcircuit for gf180mcu_fd_sc_mcu7t5v0__aoi22_2 abstract view
.subckt gf180mcu_fd_sc_mcu7t5v0__aoi22_2 A1 A2 B1 B2 ZN VDD VSS
.ends

* Black-box entry subcircuit for gf180mcu_fd_sc_mcu7t5v0__oai33_1 abstract view
.subckt gf180mcu_fd_sc_mcu7t5v0__oai33_1 A1 A2 A3 B1 B2 B3 ZN VDD VSS
.ends

* Black-box entry subcircuit for gf180mcu_fd_sc_mcu7t5v0__oai32_2 abstract view
.subckt gf180mcu_fd_sc_mcu7t5v0__oai32_2 A1 A2 A3 B1 B2 ZN VDD VSS
.ends

.subckt wrapped_as2650 io_in[0] io_in[10] io_in[11] io_in[12] io_in[13] io_in[14]
+ io_in[15] io_in[16] io_in[17] io_in[18] io_in[19] io_in[1] io_in[20] io_in[21] io_in[22]
+ io_in[23] io_in[24] io_in[25] io_in[26] io_in[27] io_in[28] io_in[29] io_in[2] io_in[30]
+ io_in[31] io_in[32] io_in[33] io_in[34] io_in[35] io_in[36] io_in[37] io_in[3] io_in[4]
+ io_in[5] io_in[6] io_in[7] io_in[8] io_in[9] io_oeb[0] io_oeb[10] io_oeb[11] io_oeb[12]
+ io_oeb[13] io_oeb[14] io_oeb[15] io_oeb[16] io_oeb[17] io_oeb[18] io_oeb[19] io_oeb[1]
+ io_oeb[20] io_oeb[21] io_oeb[22] io_oeb[23] io_oeb[24] io_oeb[25] io_oeb[26] io_oeb[27]
+ io_oeb[28] io_oeb[29] io_oeb[2] io_oeb[30] io_oeb[31] io_oeb[32] io_oeb[33] io_oeb[34]
+ io_oeb[35] io_oeb[36] io_oeb[37] io_oeb[3] io_oeb[4] io_oeb[5] io_oeb[6] io_oeb[7]
+ io_oeb[8] io_oeb[9] io_out[0] io_out[10] io_out[11] io_out[12] io_out[13] io_out[14]
+ io_out[15] io_out[16] io_out[17] io_out[18] io_out[19] io_out[1] io_out[20] io_out[21]
+ io_out[22] io_out[23] io_out[24] io_out[25] io_out[26] io_out[27] io_out[28] io_out[29]
+ io_out[2] io_out[30] io_out[31] io_out[32] io_out[33] io_out[34] io_out[35] io_out[36]
+ io_out[37] io_out[3] io_out[4] io_out[5] io_out[6] io_out[7] io_out[8] io_out[9]
+ vdd vss wb_clk_i wb_rst_i
XFILLER_67_520 vdd vss gf180mcu_fd_sc_mcu7t5v0__fill_2
XFILLER_100_127 vdd vss gf180mcu_fd_sc_mcu7t5v0__fillcap_4
XFILLER_95_840 vdd vss gf180mcu_fd_sc_mcu7t5v0__fill_2
XFILLER_100_138 vdd vss gf180mcu_fd_sc_mcu7t5v0__fill_2
XFILLER_95_884 vdd vss gf180mcu_fd_sc_mcu7t5v0__fillcap_4
XFILLER_27_428 vdd vss gf180mcu_fd_sc_mcu7t5v0__fillcap_64
XFILLER_82_534 vdd vss gf180mcu_fd_sc_mcu7t5v0__fillcap_32
XFILLER_54_247 vdd vss gf180mcu_fd_sc_mcu7t5v0__fill_1
X_6914_ _2659_ _2877_ _2890_ _2747_ _2891_ vdd vss gf180mcu_fd_sc_mcu7t5v0__oai22_1
XFILLER_23_634 vdd vss gf180mcu_fd_sc_mcu7t5v0__fillcap_4
XFILLER_1_1490 vdd vss gf180mcu_fd_sc_mcu7t5v0__fill_1
XFILLER_62_280 vdd vss gf180mcu_fd_sc_mcu7t5v0__fill_2
X_6845_ _2796_ _2822_ _2823_ _2824_ vdd vss gf180mcu_fd_sc_mcu7t5v0__aoi21_4
XFILLER_126_1115 vdd vss gf180mcu_fd_sc_mcu7t5v0__fill_2
X_6776_ _2046_ _2699_ _2044_ _2047_ _2757_ vdd vss gf180mcu_fd_sc_mcu7t5v0__aoi211_1
XFILLER_52_1312 vdd vss gf180mcu_fd_sc_mcu7t5v0__fill_1
XANTENNA__5196__A2 _1045_ vdd vss gf180mcu_fd_sc_mcu7t5v0__antenna
X_3988_ _3501_ _3522_ _3523_ vdd vss gf180mcu_fd_sc_mcu7t5v0__xnor2_1
XFILLER_108_1560 vdd vss gf180mcu_fd_sc_mcu7t5v0__fillcap_16
X_5727_ _0662_ _1746_ _1755_ vdd vss gf180mcu_fd_sc_mcu7t5v0__nand2_1
XANTENNA__4943__A2 _1053_ vdd vss gf180mcu_fd_sc_mcu7t5v0__antenna
XFILLER_109_717 vdd vss gf180mcu_fd_sc_mcu7t5v0__fill_2
XFILLER_136_503 vdd vss gf180mcu_fd_sc_mcu7t5v0__fill_2
XANTENNA__6160__I _0720_ vdd vss gf180mcu_fd_sc_mcu7t5v0__antenna
XFILLER_104_1457 vdd vss gf180mcu_fd_sc_mcu7t5v0__fillcap_64
XFILLER_108_205 vdd vss gf180mcu_fd_sc_mcu7t5v0__fill_2
XANTENNA__6145__A1 _2000_ vdd vss gf180mcu_fd_sc_mcu7t5v0__antenna
X_5658_ _3433_ _1695_ vdd vss gf180mcu_fd_sc_mcu7t5v0__clkbuf_1
XFILLER_87_1419 vdd vss gf180mcu_fd_sc_mcu7t5v0__fill_1
XFILLER_124_709 vdd vss gf180mcu_fd_sc_mcu7t5v0__fillcap_4
X_4609_ _0758_ _0774_ vdd vss gf180mcu_fd_sc_mcu7t5v0__clkbuf_1
XFILLER_85_1110 vdd vss gf180mcu_fd_sc_mcu7t5v0__fill_2
XFILLER_102_1170 vdd vss gf180mcu_fd_sc_mcu7t5v0__fill_1
XFILLER_105_901 vdd vss gf180mcu_fd_sc_mcu7t5v0__fill_2
XFILLER_11_1064 vdd vss gf180mcu_fd_sc_mcu7t5v0__fill_1
X_5589_ _3556_ _1628_ _0422_ _1629_ _1630_ vdd vss gf180mcu_fd_sc_mcu7t5v0__or4_1
XFILLER_117_783 vdd vss gf180mcu_fd_sc_mcu7t5v0__fillcap_8
XFILLER_117_22 vdd vss gf180mcu_fd_sc_mcu7t5v0__fill_2
XFILLER_117_794 vdd vss gf180mcu_fd_sc_mcu7t5v0__fill_2
XFILLER_2_527 vdd vss gf180mcu_fd_sc_mcu7t5v0__fillcap_4
XFILLER_105_934 vdd vss gf180mcu_fd_sc_mcu7t5v0__fill_2
X_7328_ _0139_ clknet_leaf_35_wb_clk_i as2650.stack\[5\]\[12\] vdd vss gf180mcu_fd_sc_mcu7t5v0__dffq_1
XFILLER_116_282 vdd vss gf180mcu_fd_sc_mcu7t5v0__fillcap_8
XFILLER_132_742 vdd vss gf180mcu_fd_sc_mcu7t5v0__fill_2
XFILLER_117_55 vdd vss gf180mcu_fd_sc_mcu7t5v0__fill_1
XFILLER_89_133 vdd vss gf180mcu_fd_sc_mcu7t5v0__fill_2
XFILLER_131_230 vdd vss gf180mcu_fd_sc_mcu7t5v0__fill_1
XFILLER_77_15 vdd vss gf180mcu_fd_sc_mcu7t5v0__fill_2
XFILLER_78_807 vdd vss gf180mcu_fd_sc_mcu7t5v0__fillcap_4
XFILLER_85_1176 vdd vss gf180mcu_fd_sc_mcu7t5v0__fill_2
XFILLER_78_818 vdd vss gf180mcu_fd_sc_mcu7t5v0__fill_1
XFILLER_89_144 vdd vss gf180mcu_fd_sc_mcu7t5v0__fill_1
XFILLER_77_37 vdd vss gf180mcu_fd_sc_mcu7t5v0__fill_2
XFILLER_81_1029 vdd vss gf180mcu_fd_sc_mcu7t5v0__fill_2
XFILLER_89_155 vdd vss gf180mcu_fd_sc_mcu7t5v0__fill_2
X_7259_ _0070_ clknet_leaf_50_wb_clk_i as2650.stack\[0\]\[2\] vdd vss gf180mcu_fd_sc_mcu7t5v0__dffq_1
XFILLER_105_989 vdd vss gf180mcu_fd_sc_mcu7t5v0__fill_2
XFILLER_104_466 vdd vss gf180mcu_fd_sc_mcu7t5v0__fillcap_16
XFILLER_137_1277 vdd vss gf180mcu_fd_sc_mcu7t5v0__fill_1
XFILLER_77_59 vdd vss gf180mcu_fd_sc_mcu7t5v0__fillcap_8
XFILLER_77_328 vdd vss gf180mcu_fd_sc_mcu7t5v0__fillcap_4
XFILLER_77_339 vdd vss gf180mcu_fd_sc_mcu7t5v0__fillcap_4
XANTENNA__5120__A2 _1232_ vdd vss gf180mcu_fd_sc_mcu7t5v0__antenna
XFILLER_58_531 vdd vss gf180mcu_fd_sc_mcu7t5v0__fill_1
XFILLER_115_1564 vdd vss gf180mcu_fd_sc_mcu7t5v0__fillcap_16
XFILLER_19_918 vdd vss gf180mcu_fd_sc_mcu7t5v0__fillcap_4
XTAP_3202 vdd vss gf180mcu_fd_sc_mcu7t5v0__filltie
XTAP_3213 vdd vss gf180mcu_fd_sc_mcu7t5v0__filltie
XTAP_3224 vdd vss gf180mcu_fd_sc_mcu7t5v0__filltie
XFILLER_133_87 vdd vss gf180mcu_fd_sc_mcu7t5v0__fill_1
XTAP_3235 vdd vss gf180mcu_fd_sc_mcu7t5v0__filltie
XTAP_2501 vdd vss gf180mcu_fd_sc_mcu7t5v0__filltie
XTAP_3246 vdd vss gf180mcu_fd_sc_mcu7t5v0__filltie
XFILLER_73_545 vdd vss gf180mcu_fd_sc_mcu7t5v0__fill_2
XANTENNA_output37_I net37 vdd vss gf180mcu_fd_sc_mcu7t5v0__antenna
XTAP_3257 vdd vss gf180mcu_fd_sc_mcu7t5v0__filltie
XFILLER_45_247 vdd vss gf180mcu_fd_sc_mcu7t5v0__fillcap_8
XANTENNA__3959__I _3273_ vdd vss gf180mcu_fd_sc_mcu7t5v0__antenna
XTAP_2512 vdd vss gf180mcu_fd_sc_mcu7t5v0__filltie
XTAP_3268 vdd vss gf180mcu_fd_sc_mcu7t5v0__filltie
XTAP_2523 vdd vss gf180mcu_fd_sc_mcu7t5v0__filltie
XTAP_3279 vdd vss gf180mcu_fd_sc_mcu7t5v0__filltie
XFILLER_73_567 vdd vss gf180mcu_fd_sc_mcu7t5v0__fill_1
XTAP_2534 vdd vss gf180mcu_fd_sc_mcu7t5v0__filltie
XTAP_1800 vdd vss gf180mcu_fd_sc_mcu7t5v0__filltie
XTAP_2545 vdd vss gf180mcu_fd_sc_mcu7t5v0__filltie
XTAP_1811 vdd vss gf180mcu_fd_sc_mcu7t5v0__filltie
XTAP_2556 vdd vss gf180mcu_fd_sc_mcu7t5v0__filltie
XTAP_1822 vdd vss gf180mcu_fd_sc_mcu7t5v0__filltie
XANTENNA__4631__A1 _0702_ vdd vss gf180mcu_fd_sc_mcu7t5v0__antenna
XTAP_2567 vdd vss gf180mcu_fd_sc_mcu7t5v0__filltie
XTAP_1833 vdd vss gf180mcu_fd_sc_mcu7t5v0__filltie
XFILLER_92_1125 vdd vss gf180mcu_fd_sc_mcu7t5v0__fill_1
XFILLER_96_1294 vdd vss gf180mcu_fd_sc_mcu7t5v0__fillcap_4
XTAP_2578 vdd vss gf180mcu_fd_sc_mcu7t5v0__filltie
XTAP_1844 vdd vss gf180mcu_fd_sc_mcu7t5v0__filltie
XFILLER_92_1136 vdd vss gf180mcu_fd_sc_mcu7t5v0__fill_1
XTAP_2589 vdd vss gf180mcu_fd_sc_mcu7t5v0__filltie
XTAP_1855 vdd vss gf180mcu_fd_sc_mcu7t5v0__filltie
XTAP_1866 vdd vss gf180mcu_fd_sc_mcu7t5v0__filltie
XFILLER_144_1237 vdd vss gf180mcu_fd_sc_mcu7t5v0__fillcap_8
XFILLER_13_144 vdd vss gf180mcu_fd_sc_mcu7t5v0__fillcap_64
XTAP_1877 vdd vss gf180mcu_fd_sc_mcu7t5v0__filltie
XTAP_1888 vdd vss gf180mcu_fd_sc_mcu7t5v0__filltie
XTAP_1899 vdd vss gf180mcu_fd_sc_mcu7t5v0__filltie
XANTENNA__5187__A2 _3542_ vdd vss gf180mcu_fd_sc_mcu7t5v0__antenna
XFILLER_144_1259 vdd vss gf180mcu_fd_sc_mcu7t5v0__fill_1
XFILLER_9_137 vdd vss gf180mcu_fd_sc_mcu7t5v0__fillcap_4
XANTENNA__4934__A2 _3547_ vdd vss gf180mcu_fd_sc_mcu7t5v0__antenna
XANTENNA__3737__A3 _3239_ vdd vss gf180mcu_fd_sc_mcu7t5v0__antenna
XFILLER_139_352 vdd vss gf180mcu_fd_sc_mcu7t5v0__fill_2
XFILLER_6_811 vdd vss gf180mcu_fd_sc_mcu7t5v0__fillcap_4
XFILLER_127_525 vdd vss gf180mcu_fd_sc_mcu7t5v0__fill_2
XFILLER_127_536 vdd vss gf180mcu_fd_sc_mcu7t5v0__fillcap_16
XANTENNA__6136__A1 _2066_ vdd vss gf180mcu_fd_sc_mcu7t5v0__antenna
XFILLER_139_396 vdd vss gf180mcu_fd_sc_mcu7t5v0__fill_2
XANTENNA__6136__B2 _2149_ vdd vss gf180mcu_fd_sc_mcu7t5v0__antenna
XFILLER_5_354 vdd vss gf180mcu_fd_sc_mcu7t5v0__fill_1
XFILLER_107_271 vdd vss gf180mcu_fd_sc_mcu7t5v0__fillcap_4
XANTENNA__7404__CLK clknet_leaf_34_wb_clk_i vdd vss gf180mcu_fd_sc_mcu7t5v0__antenna
XFILLER_9_1419 vdd vss gf180mcu_fd_sc_mcu7t5v0__fill_1
XFILLER_111_904 vdd vss gf180mcu_fd_sc_mcu7t5v0__fill_2
XFILLER_123_764 vdd vss gf180mcu_fd_sc_mcu7t5v0__fill_2
XFILLER_110_403 vdd vss gf180mcu_fd_sc_mcu7t5v0__fillcap_4
XFILLER_95_103 vdd vss gf180mcu_fd_sc_mcu7t5v0__fill_1
XFILLER_95_114 vdd vss gf180mcu_fd_sc_mcu7t5v0__fill_2
XFILLER_110_425 vdd vss gf180mcu_fd_sc_mcu7t5v0__fill_2
XFILLER_111_959 vdd vss gf180mcu_fd_sc_mcu7t5v0__fill_2
XFILLER_27_1060 vdd vss gf180mcu_fd_sc_mcu7t5v0__fillcap_4
XANTENNA__5111__A2 _1222_ vdd vss gf180mcu_fd_sc_mcu7t5v0__antenna
XFILLER_42_1525 vdd vss gf180mcu_fd_sc_mcu7t5v0__fill_1
XFILLER_67_70 vdd vss gf180mcu_fd_sc_mcu7t5v0__fill_1
XFILLER_76_350 vdd vss gf180mcu_fd_sc_mcu7t5v0__fill_2
Xclkbuf_leaf_60_wb_clk_i clknet_3_1_0_wb_clk_i clknet_leaf_60_wb_clk_i vdd vss gf180mcu_fd_sc_mcu7t5v0__clkbuf_16
XFILLER_64_523 vdd vss gf180mcu_fd_sc_mcu7t5v0__fillcap_4
XFILLER_76_383 vdd vss gf180mcu_fd_sc_mcu7t5v0__fillcap_4
XFILLER_97_1025 vdd vss gf180mcu_fd_sc_mcu7t5v0__fillcap_4
XFILLER_64_534 vdd vss gf180mcu_fd_sc_mcu7t5v0__fill_1
XFILLER_114_1096 vdd vss gf180mcu_fd_sc_mcu7t5v0__fillcap_4
XFILLER_36_247 vdd vss gf180mcu_fd_sc_mcu7t5v0__fill_1
XANTENNA__6611__A2 _2602_ vdd vss gf180mcu_fd_sc_mcu7t5v0__antenna
X_4960_ _3209_ _1074_ vdd vss gf180mcu_fd_sc_mcu7t5v0__buf_1
XFILLER_51_228 vdd vss gf180mcu_fd_sc_mcu7t5v0__fill_2
XFILLER_83_80 vdd vss gf180mcu_fd_sc_mcu7t5v0__fillcap_16
X_3911_ as2650.addr_buff\[5\] _3387_ _3446_ vdd vss gf180mcu_fd_sc_mcu7t5v0__nand2_1
XFILLER_60_740 vdd vss gf180mcu_fd_sc_mcu7t5v0__fillcap_4
X_4891_ _0929_ _1005_ _1006_ _0937_ _1007_ vdd vss gf180mcu_fd_sc_mcu7t5v0__oai211_1
XFILLER_71_1209 vdd vss gf180mcu_fd_sc_mcu7t5v0__fillcap_64
X_6630_ _1508_ _1510_ _2615_ vdd vss gf180mcu_fd_sc_mcu7t5v0__nand2_1
X_3842_ _3345_ _3355_ _3376_ _3377_ _3378_ vdd vss gf180mcu_fd_sc_mcu7t5v0__oai211_1
XFILLER_34_1031 vdd vss gf180mcu_fd_sc_mcu7t5v0__fillcap_64
XFILLER_80_2 vdd vss gf180mcu_fd_sc_mcu7t5v0__fillcap_4
X_6561_ as2650.psl\[5\] _2459_ _2561_ _2562_ vdd vss gf180mcu_fd_sc_mcu7t5v0__oai21_1
XANTENNA__4925__A2 _1038_ vdd vss gf180mcu_fd_sc_mcu7t5v0__antenna
X_3773_ _3308_ _3241_ _3309_ vdd vss gf180mcu_fd_sc_mcu7t5v0__nand2_1
X_5512_ _1554_ _1547_ _1556_ _0158_ vdd vss gf180mcu_fd_sc_mcu7t5v0__oai21_1
X_6492_ _2490_ _2497_ vdd vss gf180mcu_fd_sc_mcu7t5v0__clkbuf_1
XFILLER_121_1056 vdd vss gf180mcu_fd_sc_mcu7t5v0__fill_2
XFILLER_121_1067 vdd vss gf180mcu_fd_sc_mcu7t5v0__fill_1
X_5443_ _3142_ _1495_ vdd vss gf180mcu_fd_sc_mcu7t5v0__clkbuf_1
XFILLER_69_1138 vdd vss gf180mcu_fd_sc_mcu7t5v0__fillcap_64
XFILLER_103_1490 vdd vss gf180mcu_fd_sc_mcu7t5v0__fill_1
XFILLER_126_580 vdd vss gf180mcu_fd_sc_mcu7t5v0__fill_2
X_5374_ _1433_ _1434_ _1435_ _1436_ _1437_ vdd vss gf180mcu_fd_sc_mcu7t5v0__nand4_1
XANTENNA__5350__A2 _1410_ vdd vss gf180mcu_fd_sc_mcu7t5v0__antenna
X_7113_ _0445_ _0974_ _3058_ _3064_ _3065_ _3066_ vdd vss gf180mcu_fd_sc_mcu7t5v0__oai221_1
XFILLER_113_230 vdd vss gf180mcu_fd_sc_mcu7t5v0__fillcap_4
XFILLER_141_550 vdd vss gf180mcu_fd_sc_mcu7t5v0__fill_2
X_4325_ _0446_ _0521_ _0522_ vdd vss gf180mcu_fd_sc_mcu7t5v0__and2_1
XFILLER_87_604 vdd vss gf180mcu_fd_sc_mcu7t5v0__fill_2
XFILLER_59_317 vdd vss gf180mcu_fd_sc_mcu7t5v0__fill_2
XFILLER_102_937 vdd vss gf180mcu_fd_sc_mcu7t5v0__fillcap_4
XFILLER_113_263 vdd vss gf180mcu_fd_sc_mcu7t5v0__fill_2
X_7044_ _3009_ _2989_ _3011_ _0235_ vdd vss gf180mcu_fd_sc_mcu7t5v0__aoi21_1
XFILLER_101_425 vdd vss gf180mcu_fd_sc_mcu7t5v0__fill_1
X_4256_ as2650.holding_reg\[5\] _3246_ _0454_ vdd vss gf180mcu_fd_sc_mcu7t5v0__and2_1
XANTENNA__5102__A2 _1214_ vdd vss gf180mcu_fd_sc_mcu7t5v0__antenna
XFILLER_87_659 vdd vss gf180mcu_fd_sc_mcu7t5v0__fillcap_8
XFILLER_74_309 vdd vss gf180mcu_fd_sc_mcu7t5v0__fill_2
XFILLER_86_169 vdd vss gf180mcu_fd_sc_mcu7t5v0__fill_2
X_4187_ _0374_ _0385_ _0386_ vdd vss gf180mcu_fd_sc_mcu7t5v0__xor2_1
XFILLER_55_512 vdd vss gf180mcu_fd_sc_mcu7t5v0__fill_2
XANTENNA__4861__A1 _0422_ vdd vss gf180mcu_fd_sc_mcu7t5v0__antenna
XFILLER_95_681 vdd vss gf180mcu_fd_sc_mcu7t5v0__fillcap_8
XFILLER_67_383 vdd vss gf180mcu_fd_sc_mcu7t5v0__fillcap_4
XFILLER_95_692 vdd vss gf180mcu_fd_sc_mcu7t5v0__fill_2
XFILLER_67_394 vdd vss gf180mcu_fd_sc_mcu7t5v0__fill_2
XFILLER_83_854 vdd vss gf180mcu_fd_sc_mcu7t5v0__fill_1
XFILLER_94_191 vdd vss gf180mcu_fd_sc_mcu7t5v0__fill_1
XFILLER_55_567 vdd vss gf180mcu_fd_sc_mcu7t5v0__fill_1
XFILLER_82_342 vdd vss gf180mcu_fd_sc_mcu7t5v0__fill_2
XANTENNA__6602__A2 _2597_ vdd vss gf180mcu_fd_sc_mcu7t5v0__antenna
XANTENNA__5405__A3 _0755_ vdd vss gf180mcu_fd_sc_mcu7t5v0__antenna
XFILLER_110_1450 vdd vss gf180mcu_fd_sc_mcu7t5v0__fillcap_4
XFILLER_58_1521 vdd vss gf180mcu_fd_sc_mcu7t5v0__fillcap_4
XTAP_1107 vdd vss gf180mcu_fd_sc_mcu7t5v0__filltie
XFILLER_82_375 vdd vss gf180mcu_fd_sc_mcu7t5v0__fillcap_4
XTAP_1118 vdd vss gf180mcu_fd_sc_mcu7t5v0__filltie
XFILLER_82_386 vdd vss gf180mcu_fd_sc_mcu7t5v0__fill_1
XANTENNA__4613__A1 _0741_ vdd vss gf180mcu_fd_sc_mcu7t5v0__antenna
XTAP_1129 vdd vss gf180mcu_fd_sc_mcu7t5v0__filltie
XFILLER_58_1576 vdd vss gf180mcu_fd_sc_mcu7t5v0__fillcap_4
XFILLER_50_250 vdd vss gf180mcu_fd_sc_mcu7t5v0__fill_1
X_6828_ _2680_ _2791_ _2807_ _2640_ _2808_ vdd vss gf180mcu_fd_sc_mcu7t5v0__aoi211_1
XANTENNA__5927__C _1054_ vdd vss gf180mcu_fd_sc_mcu7t5v0__antenna
XANTENNA__6366__A1 _2373_ vdd vss gf180mcu_fd_sc_mcu7t5v0__antenna
XANTENNA__5169__A2 _0482_ vdd vss gf180mcu_fd_sc_mcu7t5v0__antenna
XFILLER_50_261 vdd vss gf180mcu_fd_sc_mcu7t5v0__fill_2
X_6759_ _3566_ _3570_ _3541_ _2741_ vdd vss gf180mcu_fd_sc_mcu7t5v0__oai21_2
XFILLER_17_1273 vdd vss gf180mcu_fd_sc_mcu7t5v0__fillcap_4
XFILLER_87_1205 vdd vss gf180mcu_fd_sc_mcu7t5v0__fill_2
XANTENNA__7427__CLK clknet_leaf_14_wb_clk_i vdd vss gf180mcu_fd_sc_mcu7t5v0__antenna
XFILLER_128_87 vdd vss gf180mcu_fd_sc_mcu7t5v0__fillcap_4
XFILLER_124_539 vdd vss gf180mcu_fd_sc_mcu7t5v0__fill_2
XFILLER_3_847 vdd vss gf180mcu_fd_sc_mcu7t5v0__fillcap_4
XFILLER_104_230 vdd vss gf180mcu_fd_sc_mcu7t5v0__fill_2
XANTENNA__5234__I _1341_ vdd vss gf180mcu_fd_sc_mcu7t5v0__antenna
XANTENNA__5629__B1 _1665_ vdd vss gf180mcu_fd_sc_mcu7t5v0__antenna
XFILLER_132_594 vdd vss gf180mcu_fd_sc_mcu7t5v0__fill_2
XFILLER_77_114 vdd vss gf180mcu_fd_sc_mcu7t5v0__fill_2
XFILLER_78_659 vdd vss gf180mcu_fd_sc_mcu7t5v0__fillcap_8
XFILLER_144_75 vdd vss gf180mcu_fd_sc_mcu7t5v0__fillcap_4
XANTENNA__6774__B _2694_ vdd vss gf180mcu_fd_sc_mcu7t5v0__antenna
XFILLER_120_756 vdd vss gf180mcu_fd_sc_mcu7t5v0__fill_2
XFILLER_59_851 vdd vss gf180mcu_fd_sc_mcu7t5v0__fill_1
XFILLER_77_158 vdd vss gf180mcu_fd_sc_mcu7t5v0__fill_2
XFILLER_24_1244 vdd vss gf180mcu_fd_sc_mcu7t5v0__fillcap_64
XFILLER_65_309 vdd vss gf180mcu_fd_sc_mcu7t5v0__fillcap_4
XFILLER_58_361 vdd vss gf180mcu_fd_sc_mcu7t5v0__fill_2
XANTENNA__4852__A1 _0325_ vdd vss gf180mcu_fd_sc_mcu7t5v0__antenna
XFILLER_86_670 vdd vss gf180mcu_fd_sc_mcu7t5v0__fillcap_4
XFILLER_98_1312 vdd vss gf180mcu_fd_sc_mcu7t5v0__fill_1
XTAP_3010 vdd vss gf180mcu_fd_sc_mcu7t5v0__filltie
XFILLER_46_512 vdd vss gf180mcu_fd_sc_mcu7t5v0__fillcap_16
XFILLER_101_992 vdd vss gf180mcu_fd_sc_mcu7t5v0__fill_2
XFILLER_58_383 vdd vss gf180mcu_fd_sc_mcu7t5v0__fillcap_4
XFILLER_92_128 vdd vss gf180mcu_fd_sc_mcu7t5v0__fill_2
XTAP_3021 vdd vss gf180mcu_fd_sc_mcu7t5v0__filltie
XFILLER_46_534 vdd vss gf180mcu_fd_sc_mcu7t5v0__fillcap_64
XFILLER_98_1345 vdd vss gf180mcu_fd_sc_mcu7t5v0__fill_2
XTAP_3032 vdd vss gf180mcu_fd_sc_mcu7t5v0__filltie
XTAP_3043 vdd vss gf180mcu_fd_sc_mcu7t5v0__filltie
XFILLER_41_1580 vdd vss gf180mcu_fd_sc_mcu7t5v0__fill_1
XFILLER_37_73 vdd vss gf180mcu_fd_sc_mcu7t5v0__fillcap_64
XFILLER_18_247 vdd vss gf180mcu_fd_sc_mcu7t5v0__fill_1
XTAP_3054 vdd vss gf180mcu_fd_sc_mcu7t5v0__filltie
XTAP_2320 vdd vss gf180mcu_fd_sc_mcu7t5v0__filltie
XTAP_3065 vdd vss gf180mcu_fd_sc_mcu7t5v0__filltie
XTAP_3076 vdd vss gf180mcu_fd_sc_mcu7t5v0__filltie
XFILLER_61_515 vdd vss gf180mcu_fd_sc_mcu7t5v0__fillcap_8
XFILLER_73_375 vdd vss gf180mcu_fd_sc_mcu7t5v0__fillcap_4
XTAP_2331 vdd vss gf180mcu_fd_sc_mcu7t5v0__filltie
XTAP_3087 vdd vss gf180mcu_fd_sc_mcu7t5v0__filltie
XTAP_2342 vdd vss gf180mcu_fd_sc_mcu7t5v0__filltie
XANTENNA__4604__A1 as2650.stack\[3\]\[7\] vdd vss gf180mcu_fd_sc_mcu7t5v0__antenna
XTAP_3098 vdd vss gf180mcu_fd_sc_mcu7t5v0__filltie
XTAP_2353 vdd vss gf180mcu_fd_sc_mcu7t5v0__filltie
XFILLER_2_1084 vdd vss gf180mcu_fd_sc_mcu7t5v0__fill_2
XFILLER_73_397 vdd vss gf180mcu_fd_sc_mcu7t5v0__fill_2
XTAP_2364 vdd vss gf180mcu_fd_sc_mcu7t5v0__filltie
XTAP_1630 vdd vss gf180mcu_fd_sc_mcu7t5v0__filltie
XTAP_2375 vdd vss gf180mcu_fd_sc_mcu7t5v0__filltie
XTAP_1641 vdd vss gf180mcu_fd_sc_mcu7t5v0__filltie
XFILLER_96_1091 vdd vss gf180mcu_fd_sc_mcu7t5v0__fill_2
XFILLER_42_740 vdd vss gf180mcu_fd_sc_mcu7t5v0__fillcap_4
XTAP_2386 vdd vss gf180mcu_fd_sc_mcu7t5v0__filltie
XFILLER_57_1064 vdd vss gf180mcu_fd_sc_mcu7t5v0__fill_1
XTAP_1652 vdd vss gf180mcu_fd_sc_mcu7t5v0__filltie
XANTENNA__4080__A2 _3535_ vdd vss gf180mcu_fd_sc_mcu7t5v0__antenna
XTAP_2397 vdd vss gf180mcu_fd_sc_mcu7t5v0__filltie
XTAP_1663 vdd vss gf180mcu_fd_sc_mcu7t5v0__filltie
XTAP_1674 vdd vss gf180mcu_fd_sc_mcu7t5v0__filltie
XANTENNA__5837__C _1774_ vdd vss gf180mcu_fd_sc_mcu7t5v0__antenna
XTAP_1685 vdd vss gf180mcu_fd_sc_mcu7t5v0__filltie
XANTENNA__6357__A1 as2650.stack\[2\]\[10\] vdd vss gf180mcu_fd_sc_mcu7t5v0__antenna
XTAP_1696 vdd vss gf180mcu_fd_sc_mcu7t5v0__filltie
XFILLER_41_283 vdd vss gf180mcu_fd_sc_mcu7t5v0__fill_1
XFILLER_30_957 vdd vss gf180mcu_fd_sc_mcu7t5v0__fill_1
XFILLER_35_1351 vdd vss gf180mcu_fd_sc_mcu7t5v0__fillcap_64
XFILLER_128_823 vdd vss gf180mcu_fd_sc_mcu7t5v0__fill_2
XFILLER_127_300 vdd vss gf180mcu_fd_sc_mcu7t5v0__fill_2
XANTENNA__6109__A1 _1921_ vdd vss gf180mcu_fd_sc_mcu7t5v0__antenna
XFILLER_127_322 vdd vss gf180mcu_fd_sc_mcu7t5v0__fill_1
XANTENNA__6949__B _2482_ vdd vss gf180mcu_fd_sc_mcu7t5v0__antenna
XFILLER_127_333 vdd vss gf180mcu_fd_sc_mcu7t5v0__fill_2
XFILLER_143_804 vdd vss gf180mcu_fd_sc_mcu7t5v0__fillcap_4
XFILLER_128_889 vdd vss gf180mcu_fd_sc_mcu7t5v0__fill_1
XFILLER_127_366 vdd vss gf180mcu_fd_sc_mcu7t5v0__fillcap_32