* NGSPICE file created from wrapped_as2650.ext - technology: gf180mcuC

* Black-box entry subcircuit for gf180mcu_fd_sc_mcu7t5v0__fill_2 abstract view
.subckt gf180mcu_fd_sc_mcu7t5v0__fill_2 VDD VSS
.ends

* Black-box entry subcircuit for gf180mcu_fd_sc_mcu7t5v0__fill_1 abstract view
.subckt gf180mcu_fd_sc_mcu7t5v0__fill_1 VDD VSS
.ends

* Black-box entry subcircuit for gf180mcu_fd_sc_mcu7t5v0__antenna abstract view
.subckt gf180mcu_fd_sc_mcu7t5v0__antenna I VDD VSS
.ends

* Black-box entry subcircuit for gf180mcu_fd_sc_mcu7t5v0__fillcap_4 abstract view
.subckt gf180mcu_fd_sc_mcu7t5v0__fillcap_4 VDD VSS
.ends

* Black-box entry subcircuit for gf180mcu_fd_sc_mcu7t5v0__fillcap_64 abstract view
.subckt gf180mcu_fd_sc_mcu7t5v0__fillcap_64 VDD VSS
.ends

* Black-box entry subcircuit for gf180mcu_fd_sc_mcu7t5v0__dffq_1 abstract view
.subckt gf180mcu_fd_sc_mcu7t5v0__dffq_1 D CLK Q VDD VSS
.ends

* Black-box entry subcircuit for gf180mcu_fd_sc_mcu7t5v0__oai211_1 abstract view
.subckt gf180mcu_fd_sc_mcu7t5v0__oai211_1 A1 A2 B C ZN VDD VSS
.ends

* Black-box entry subcircuit for gf180mcu_fd_sc_mcu7t5v0__aoi22_1 abstract view
.subckt gf180mcu_fd_sc_mcu7t5v0__aoi22_1 A1 A2 B1 B2 ZN VDD VSS
.ends

* Black-box entry subcircuit for gf180mcu_fd_sc_mcu7t5v0__fillcap_16 abstract view
.subckt gf180mcu_fd_sc_mcu7t5v0__fillcap_16 VDD VSS
.ends

* Black-box entry subcircuit for gf180mcu_fd_sc_mcu7t5v0__and3_1 abstract view
.subckt gf180mcu_fd_sc_mcu7t5v0__and3_1 A1 A2 A3 Z VDD VSS
.ends

* Black-box entry subcircuit for gf180mcu_fd_sc_mcu7t5v0__nand2_1 abstract view
.subckt gf180mcu_fd_sc_mcu7t5v0__nand2_1 A1 A2 ZN VDD VSS
.ends

* Black-box entry subcircuit for gf180mcu_fd_sc_mcu7t5v0__oai21_1 abstract view
.subckt gf180mcu_fd_sc_mcu7t5v0__oai21_1 A1 A2 B ZN VDD VSS
.ends

* Black-box entry subcircuit for gf180mcu_fd_sc_mcu7t5v0__aoi211_1 abstract view
.subckt gf180mcu_fd_sc_mcu7t5v0__aoi211_1 A1 A2 B C ZN VDD VSS
.ends

* Black-box entry subcircuit for gf180mcu_fd_sc_mcu7t5v0__clkbuf_1 abstract view
.subckt gf180mcu_fd_sc_mcu7t5v0__clkbuf_1 I Z VDD VSS
.ends

* Black-box entry subcircuit for gf180mcu_fd_sc_mcu7t5v0__fillcap_32 abstract view
.subckt gf180mcu_fd_sc_mcu7t5v0__fillcap_32 VDD VSS
.ends

* Black-box entry subcircuit for gf180mcu_fd_sc_mcu7t5v0__filltie abstract view
.subckt gf180mcu_fd_sc_mcu7t5v0__filltie VDD VSS
.ends

* Black-box entry subcircuit for gf180mcu_fd_sc_mcu7t5v0__fillcap_8 abstract view
.subckt gf180mcu_fd_sc_mcu7t5v0__fillcap_8 VDD VSS
.ends

* Black-box entry subcircuit for gf180mcu_fd_sc_mcu7t5v0__clkbuf_16 abstract view
.subckt gf180mcu_fd_sc_mcu7t5v0__clkbuf_16 I Z VDD VSS
.ends

* Black-box entry subcircuit for gf180mcu_fd_sc_mcu7t5v0__aoi22_2 abstract view
.subckt gf180mcu_fd_sc_mcu7t5v0__aoi22_2 A1 A2 B1 B2 ZN VDD VSS
.ends

* Black-box entry subcircuit for gf180mcu_fd_sc_mcu7t5v0__buf_1 abstract view
.subckt gf180mcu_fd_sc_mcu7t5v0__buf_1 I Z VDD VSS
.ends

* Black-box entry subcircuit for gf180mcu_fd_sc_mcu7t5v0__mux2_2 abstract view
.subckt gf180mcu_fd_sc_mcu7t5v0__mux2_2 I0 I1 S Z VDD VSS
.ends

* Black-box entry subcircuit for gf180mcu_fd_sc_mcu7t5v0__oai32_1 abstract view
.subckt gf180mcu_fd_sc_mcu7t5v0__oai32_1 A1 A2 A3 B1 B2 ZN VDD VSS
.ends

* Black-box entry subcircuit for gf180mcu_fd_sc_mcu7t5v0__nand3_1 abstract view
.subckt gf180mcu_fd_sc_mcu7t5v0__nand3_1 A1 A2 A3 ZN VDD VSS
.ends

* Black-box entry subcircuit for gf180mcu_fd_sc_mcu7t5v0__aoi221_1 abstract view
.subckt gf180mcu_fd_sc_mcu7t5v0__aoi221_1 A1 A2 B1 B2 C ZN VDD VSS
.ends

* Black-box entry subcircuit for gf180mcu_fd_sc_mcu7t5v0__xor2_1 abstract view
.subckt gf180mcu_fd_sc_mcu7t5v0__xor2_1 A1 A2 Z VDD VSS
.ends

* Black-box entry subcircuit for gf180mcu_fd_sc_mcu7t5v0__nand4_2 abstract view
.subckt gf180mcu_fd_sc_mcu7t5v0__nand4_2 A1 A2 A3 A4 ZN VDD VSS
.ends

* Black-box entry subcircuit for gf180mcu_fd_sc_mcu7t5v0__clkinv_1 abstract view
.subckt gf180mcu_fd_sc_mcu7t5v0__clkinv_1 I ZN VDD VSS
.ends

* Black-box entry subcircuit for gf180mcu_fd_sc_mcu7t5v0__nor2_1 abstract view
.subckt gf180mcu_fd_sc_mcu7t5v0__nor2_1 A1 A2 ZN VDD VSS
.ends

* Black-box entry subcircuit for gf180mcu_fd_sc_mcu7t5v0__xnor2_1 abstract view
.subckt gf180mcu_fd_sc_mcu7t5v0__xnor2_1 A1 A2 ZN VDD VSS
.ends

* Black-box entry subcircuit for gf180mcu_fd_sc_mcu7t5v0__nand3_2 abstract view
.subckt gf180mcu_fd_sc_mcu7t5v0__nand3_2 A1 A2 A3 ZN VDD VSS
.ends

* Black-box entry subcircuit for gf180mcu_fd_sc_mcu7t5v0__aoi21_2 abstract view
.subckt gf180mcu_fd_sc_mcu7t5v0__aoi21_2 A1 A2 B ZN VDD VSS
.ends

* Black-box entry subcircuit for gf180mcu_fd_sc_mcu7t5v0__and2_1 abstract view
.subckt gf180mcu_fd_sc_mcu7t5v0__and2_1 A1 A2 Z VDD VSS
.ends

* Black-box entry subcircuit for gf180mcu_fd_sc_mcu7t5v0__oai211_2 abstract view
.subckt gf180mcu_fd_sc_mcu7t5v0__oai211_2 A1 A2 B C ZN VDD VSS
.ends

* Black-box entry subcircuit for gf180mcu_fd_sc_mcu7t5v0__aoi21_1 abstract view
.subckt gf180mcu_fd_sc_mcu7t5v0__aoi21_1 A1 A2 B ZN VDD VSS
.ends

* Black-box entry subcircuit for gf180mcu_fd_sc_mcu7t5v0__xnor3_1 abstract view
.subckt gf180mcu_fd_sc_mcu7t5v0__xnor3_1 A1 A2 A3 ZN VDD VSS
.ends

* Black-box entry subcircuit for gf180mcu_fd_sc_mcu7t5v0__aoi211_2 abstract view
.subckt gf180mcu_fd_sc_mcu7t5v0__aoi211_2 A1 A2 B C ZN VDD VSS
.ends

* Black-box entry subcircuit for gf180mcu_fd_sc_mcu7t5v0__nor4_1 abstract view
.subckt gf180mcu_fd_sc_mcu7t5v0__nor4_1 A1 A2 A3 A4 ZN VDD VSS
.ends

* Black-box entry subcircuit for gf180mcu_fd_sc_mcu7t5v0__oai31_1 abstract view
.subckt gf180mcu_fd_sc_mcu7t5v0__oai31_1 A1 A2 A3 B ZN VDD VSS
.ends

* Black-box entry subcircuit for gf180mcu_fd_sc_mcu7t5v0__clkbuf_3 abstract view
.subckt gf180mcu_fd_sc_mcu7t5v0__clkbuf_3 I Z VDD VSS
.ends

* Black-box entry subcircuit for gf180mcu_fd_sc_mcu7t5v0__endcap abstract view
.subckt gf180mcu_fd_sc_mcu7t5v0__endcap VDD VSS
.ends

* Black-box entry subcircuit for gf180mcu_fd_sc_mcu7t5v0__clkbuf_2 abstract view
.subckt gf180mcu_fd_sc_mcu7t5v0__clkbuf_2 I Z VDD VSS
.ends

* Black-box entry subcircuit for gf180mcu_fd_sc_mcu7t5v0__oai221_1 abstract view
.subckt gf180mcu_fd_sc_mcu7t5v0__oai221_1 A1 A2 B1 B2 C ZN VDD VSS
.ends

* Black-box entry subcircuit for gf180mcu_fd_sc_mcu7t5v0__nor3_1 abstract view
.subckt gf180mcu_fd_sc_mcu7t5v0__nor3_1 A1 A2 A3 ZN VDD VSS
.ends

* Black-box entry subcircuit for gf180mcu_fd_sc_mcu7t5v0__oai221_2 abstract view
.subckt gf180mcu_fd_sc_mcu7t5v0__oai221_2 A1 A2 B1 B2 C ZN VDD VSS
.ends

* Black-box entry subcircuit for gf180mcu_fd_sc_mcu7t5v0__oai21_2 abstract view
.subckt gf180mcu_fd_sc_mcu7t5v0__oai21_2 A1 A2 B ZN VDD VSS
.ends

* Black-box entry subcircuit for gf180mcu_fd_sc_mcu7t5v0__and2_2 abstract view
.subckt gf180mcu_fd_sc_mcu7t5v0__and2_2 A1 A2 Z VDD VSS
.ends

* Black-box entry subcircuit for gf180mcu_fd_sc_mcu7t5v0__oai22_1 abstract view
.subckt gf180mcu_fd_sc_mcu7t5v0__oai22_1 A1 A2 B1 B2 ZN VDD VSS
.ends

* Black-box entry subcircuit for gf180mcu_fd_sc_mcu7t5v0__nand4_1 abstract view
.subckt gf180mcu_fd_sc_mcu7t5v0__nand4_1 A1 A2 A3 A4 ZN VDD VSS
.ends

* Black-box entry subcircuit for gf180mcu_fd_sc_mcu7t5v0__or2_1 abstract view
.subckt gf180mcu_fd_sc_mcu7t5v0__or2_1 A1 A2 Z VDD VSS
.ends

* Black-box entry subcircuit for gf180mcu_fd_sc_mcu7t5v0__buf_2 abstract view
.subckt gf180mcu_fd_sc_mcu7t5v0__buf_2 I Z VDD VSS
.ends

* Black-box entry subcircuit for gf180mcu_fd_sc_mcu7t5v0__nand2_2 abstract view
.subckt gf180mcu_fd_sc_mcu7t5v0__nand2_2 A1 A2 ZN VDD VSS
.ends

* Black-box entry subcircuit for gf180mcu_fd_sc_mcu7t5v0__or3_1 abstract view
.subckt gf180mcu_fd_sc_mcu7t5v0__or3_1 A1 A2 A3 Z VDD VSS
.ends

* Black-box entry subcircuit for gf180mcu_fd_sc_mcu7t5v0__oai31_2 abstract view
.subckt gf180mcu_fd_sc_mcu7t5v0__oai31_2 A1 A2 A3 B ZN VDD VSS
.ends

* Black-box entry subcircuit for gf180mcu_fd_sc_mcu7t5v0__clkbuf_8 abstract view
.subckt gf180mcu_fd_sc_mcu7t5v0__clkbuf_8 I Z VDD VSS
.ends

* Black-box entry subcircuit for gf180mcu_fd_sc_mcu7t5v0__mux4_1 abstract view
.subckt gf180mcu_fd_sc_mcu7t5v0__mux4_1 I0 I1 I2 I3 S0 S1 Z VDD VSS
.ends

* Black-box entry subcircuit for gf180mcu_fd_sc_mcu7t5v0__aoi222_2 abstract view
.subckt gf180mcu_fd_sc_mcu7t5v0__aoi222_2 A1 A2 B1 B2 C1 C2 ZN VDD VSS
.ends

* Black-box entry subcircuit for gf180mcu_fd_sc_mcu7t5v0__xnor2_2 abstract view
.subckt gf180mcu_fd_sc_mcu7t5v0__xnor2_2 A1 A2 ZN VDD VSS
.ends

* Black-box entry subcircuit for gf180mcu_fd_sc_mcu7t5v0__and4_1 abstract view
.subckt gf180mcu_fd_sc_mcu7t5v0__and4_1 A1 A2 A3 A4 Z VDD VSS
.ends

* Black-box entry subcircuit for gf180mcu_fd_sc_mcu7t5v0__nor2_2 abstract view
.subckt gf180mcu_fd_sc_mcu7t5v0__nor2_2 A1 A2 ZN VDD VSS
.ends

* Black-box entry subcircuit for gf180mcu_fd_sc_mcu7t5v0__oai211_4 abstract view
.subckt gf180mcu_fd_sc_mcu7t5v0__oai211_4 A1 A2 B C ZN VDD VSS
.ends

* Black-box entry subcircuit for gf180mcu_fd_sc_mcu7t5v0__nor4_2 abstract view
.subckt gf180mcu_fd_sc_mcu7t5v0__nor4_2 A1 A2 A3 A4 ZN VDD VSS
.ends

* Black-box entry subcircuit for gf180mcu_fd_sc_mcu7t5v0__xor3_1 abstract view
.subckt gf180mcu_fd_sc_mcu7t5v0__xor3_1 A1 A2 A3 Z VDD VSS
.ends

* Black-box entry subcircuit for gf180mcu_fd_sc_mcu7t5v0__oai22_4 abstract view
.subckt gf180mcu_fd_sc_mcu7t5v0__oai22_4 A1 A2 B1 B2 ZN VDD VSS
.ends

* Black-box entry subcircuit for gf180mcu_fd_sc_mcu7t5v0__or4_1 abstract view
.subckt gf180mcu_fd_sc_mcu7t5v0__or4_1 A1 A2 A3 A4 Z VDD VSS
.ends

* Black-box entry subcircuit for gf180mcu_fd_sc_mcu7t5v0__aoi222_4 abstract view
.subckt gf180mcu_fd_sc_mcu7t5v0__aoi222_4 A1 A2 B1 B2 C1 C2 ZN VDD VSS
.ends

* Black-box entry subcircuit for gf180mcu_fd_sc_mcu7t5v0__aoi222_1 abstract view
.subckt gf180mcu_fd_sc_mcu7t5v0__aoi222_1 A1 A2 B1 B2 C1 C2 ZN VDD VSS
.ends

* Black-box entry subcircuit for gf180mcu_fd_sc_mcu7t5v0__nor3_2 abstract view
.subckt gf180mcu_fd_sc_mcu7t5v0__nor3_2 A1 A2 A3 ZN VDD VSS
.ends

* Black-box entry subcircuit for gf180mcu_fd_sc_mcu7t5v0__inv_1 abstract view
.subckt gf180mcu_fd_sc_mcu7t5v0__inv_1 I ZN VDD VSS
.ends

* Black-box entry subcircuit for gf180mcu_fd_sc_mcu7t5v0__aoi221_2 abstract view
.subckt gf180mcu_fd_sc_mcu7t5v0__aoi221_2 A1 A2 B1 B2 C ZN VDD VSS
.ends

* Black-box entry subcircuit for gf180mcu_fd_sc_mcu7t5v0__nor3_4 abstract view
.subckt gf180mcu_fd_sc_mcu7t5v0__nor3_4 A1 A2 A3 ZN VDD VSS
.ends

* Black-box entry subcircuit for gf180mcu_fd_sc_mcu7t5v0__tieh abstract view
.subckt gf180mcu_fd_sc_mcu7t5v0__tieh Z VDD VSS
.ends

* Black-box entry subcircuit for gf180mcu_fd_sc_mcu7t5v0__nor4_4 abstract view
.subckt gf180mcu_fd_sc_mcu7t5v0__nor4_4 A1 A2 A3 A4 ZN VDD VSS
.ends

* Black-box entry subcircuit for gf180mcu_fd_sc_mcu7t5v0__tiel abstract view
.subckt gf180mcu_fd_sc_mcu7t5v0__tiel ZN VDD VSS
.ends

* Black-box entry subcircuit for gf180mcu_fd_sc_mcu7t5v0__dlyb_1 abstract view
.subckt gf180mcu_fd_sc_mcu7t5v0__dlyb_1 I Z VDD VSS
.ends

* Black-box entry subcircuit for gf180mcu_fd_sc_mcu7t5v0__dlyd_1 abstract view
.subckt gf180mcu_fd_sc_mcu7t5v0__dlyd_1 I Z VDD VSS
.ends

* Black-box entry subcircuit for gf180mcu_fd_sc_mcu7t5v0__oai32_4 abstract view
.subckt gf180mcu_fd_sc_mcu7t5v0__oai32_4 A1 A2 A3 B1 B2 ZN VDD VSS
.ends

* Black-box entry subcircuit for gf180mcu_fd_sc_mcu7t5v0__dlyc_1 abstract view
.subckt gf180mcu_fd_sc_mcu7t5v0__dlyc_1 I Z VDD VSS
.ends

* Black-box entry subcircuit for gf180mcu_fd_sc_mcu7t5v0__xor3_2 abstract view
.subckt gf180mcu_fd_sc_mcu7t5v0__xor3_2 A1 A2 A3 Z VDD VSS
.ends

* Black-box entry subcircuit for gf180mcu_fd_sc_mcu7t5v0__aoi221_4 abstract view
.subckt gf180mcu_fd_sc_mcu7t5v0__aoi221_4 A1 A2 B1 B2 C ZN VDD VSS
.ends

* Black-box entry subcircuit for gf180mcu_fd_sc_mcu7t5v0__inv_2 abstract view
.subckt gf180mcu_fd_sc_mcu7t5v0__inv_2 I ZN VDD VSS
.ends

* Black-box entry subcircuit for gf180mcu_fd_sc_mcu7t5v0__oai33_4 abstract view
.subckt gf180mcu_fd_sc_mcu7t5v0__oai33_4 A1 A2 A3 B1 B2 B3 ZN VDD VSS
.ends

* Black-box entry subcircuit for gf180mcu_fd_sc_mcu7t5v0__clkinv_2 abstract view
.subckt gf180mcu_fd_sc_mcu7t5v0__clkinv_2 I ZN VDD VSS
.ends

* Black-box entry subcircuit for gf180mcu_fd_sc_mcu7t5v0__oai22_2 abstract view
.subckt gf180mcu_fd_sc_mcu7t5v0__oai22_2 A1 A2 B1 B2 ZN VDD VSS
.ends

* Black-box entry subcircuit for gf180mcu_fd_sc_mcu7t5v0__aoi211_4 abstract view
.subckt gf180mcu_fd_sc_mcu7t5v0__aoi211_4 A1 A2 B C ZN VDD VSS
.ends

* Black-box entry subcircuit for gf180mcu_fd_sc_mcu7t5v0__aoi21_4 abstract view
.subckt gf180mcu_fd_sc_mcu7t5v0__aoi21_4 A1 A2 B ZN VDD VSS
.ends

* Black-box entry subcircuit for gf180mcu_fd_sc_mcu7t5v0__mux4_4 abstract view
.subckt gf180mcu_fd_sc_mcu7t5v0__mux4_4 I0 I1 I2 I3 S0 S1 Z VDD VSS
.ends

* Black-box entry subcircuit for gf180mcu_fd_sc_mcu7t5v0__xor2_2 abstract view
.subckt gf180mcu_fd_sc_mcu7t5v0__xor2_2 A1 A2 Z VDD VSS
.ends

.subckt wrapped_as2650 io_in[0] io_in[10] io_in[11] io_in[12] io_in[13] io_in[14]
+ io_in[15] io_in[16] io_in[17] io_in[18] io_in[19] io_in[1] io_in[20] io_in[21] io_in[22]
+ io_in[23] io_in[24] io_in[25] io_in[26] io_in[27] io_in[28] io_in[29] io_in[2] io_in[30]
+ io_in[31] io_in[32] io_in[33] io_in[34] io_in[35] io_in[36] io_in[37] io_in[3] io_in[4]
+ io_in[5] io_in[6] io_in[7] io_in[8] io_in[9] io_oeb[0] io_oeb[10] io_oeb[11] io_oeb[12]
+ io_oeb[13] io_oeb[14] io_oeb[15] io_oeb[16] io_oeb[17] io_oeb[18] io_oeb[19] io_oeb[1]
+ io_oeb[20] io_oeb[21] io_oeb[22] io_oeb[23] io_oeb[24] io_oeb[25] io_oeb[26] io_oeb[27]
+ io_oeb[28] io_oeb[29] io_oeb[2] io_oeb[30] io_oeb[31] io_oeb[32] io_oeb[33] io_oeb[34]
+ io_oeb[35] io_oeb[36] io_oeb[37] io_oeb[3] io_oeb[4] io_oeb[5] io_oeb[6] io_oeb[7]
+ io_oeb[8] io_oeb[9] io_out[0] io_out[10] io_out[11] io_out[12] io_out[13] io_out[14]
+ io_out[15] io_out[16] io_out[17] io_out[18] io_out[19] io_out[1] io_out[20] io_out[21]
+ io_out[22] io_out[23] io_out[24] io_out[25] io_out[26] io_out[27] io_out[28] io_out[29]
+ io_out[2] io_out[30] io_out[31] io_out[32] io_out[33] io_out[34] io_out[35] io_out[36]
+ io_out[37] io_out[3] io_out[4] io_out[5] io_out[6] io_out[7] io_out[8] io_out[9]
+ vdd vss wb_clk_i wb_rst_i
XFILLER_67_531 vdd vss gf180mcu_fd_sc_mcu7t5v0__fill_2
XFILLER_95_851 vdd vss gf180mcu_fd_sc_mcu7t5v0__fill_1
XFILLER_132_1344 vdd vss gf180mcu_fd_sc_mcu7t5v0__fill_2
XANTENNA__7406__A1 _1415_ vdd vss gf180mcu_fd_sc_mcu7t5v0__antenna
XFILLER_95_862 vdd vss gf180mcu_fd_sc_mcu7t5v0__fillcap_4
XFILLER_67_575 vdd vss gf180mcu_fd_sc_mcu7t5v0__fill_2
XFILLER_95_884 vdd vss gf180mcu_fd_sc_mcu7t5v0__fill_2
XFILLER_95_895 vdd vss gf180mcu_fd_sc_mcu7t5v0__fill_2
XFILLER_27_428 vdd vss gf180mcu_fd_sc_mcu7t5v0__fillcap_64
XFILLER_82_534 vdd vss gf180mcu_fd_sc_mcu7t5v0__fill_2
X_7963_ _0082_ clknet_leaf_45_wb_clk_i as2650.stack\[6\]\[12\] vdd vss gf180mcu_fd_sc_mcu7t5v0__dffq_1
XFILLER_54_247 vdd vss gf180mcu_fd_sc_mcu7t5v0__fill_1
XFILLER_54_258 vdd vss gf180mcu_fd_sc_mcu7t5v0__fill_2
X_6914_ _2464_ _2567_ _2575_ _2475_ _2576_ vdd vss gf180mcu_fd_sc_mcu7t5v0__oai211_1
XANTENNA__6425__I _2107_ vdd vss gf180mcu_fd_sc_mcu7t5v0__antenna
XFILLER_35_450 vdd vss gf180mcu_fd_sc_mcu7t5v0__fill_2
X_7894_ _0013_ clknet_leaf_58_wb_clk_i as2650.r123\[1\]\[5\] vdd vss gf180mcu_fd_sc_mcu7t5v0__dffq_1
XANTENNA__7709__A2 _2992_ vdd vss gf180mcu_fd_sc_mcu7t5v0__antenna
XFILLER_23_634 vdd vss gf180mcu_fd_sc_mcu7t5v0__fillcap_4
XFILLER_1_1490 vdd vss gf180mcu_fd_sc_mcu7t5v0__fill_1
X_6845_ as2650.stack\[3\]\[4\] _2507_ _2508_ as2650.stack\[0\]\[4\] _2509_ vdd vss
+ gf180mcu_fd_sc_mcu7t5v0__aoi22_1
XFILLER_126_1115 vdd vss gf180mcu_fd_sc_mcu7t5v0__fill_1
XFILLER_50_431 vdd vss gf180mcu_fd_sc_mcu7t5v0__fillcap_16
X_6776_ _2434_ _2439_ _2440_ _2441_ vdd vss gf180mcu_fd_sc_mcu7t5v0__and3_1
XFILLER_52_1312 vdd vss gf180mcu_fd_sc_mcu7t5v0__fill_1
X_3988_ _3523_ _3495_ _3524_ vdd vss gf180mcu_fd_sc_mcu7t5v0__nand2_1
XFILLER_108_1560 vdd vss gf180mcu_fd_sc_mcu7t5v0__fillcap_16
XFILLER_104_1413 vdd vss gf180mcu_fd_sc_mcu7t5v0__fill_2
X_5727_ _1525_ _1527_ _1529_ _1530_ vdd vss gf180mcu_fd_sc_mcu7t5v0__oai21_1
XANTENNA__4943__A2 _0774_ vdd vss gf180mcu_fd_sc_mcu7t5v0__antenna
XFILLER_104_1457 vdd vss gf180mcu_fd_sc_mcu7t5v0__fill_1
XANTENNA__6160__I _1248_ vdd vss gf180mcu_fd_sc_mcu7t5v0__antenna
XFILLER_136_525 vdd vss gf180mcu_fd_sc_mcu7t5v0__fill_2
X_5658_ _1244_ _1234_ _1465_ vdd vss gf180mcu_fd_sc_mcu7t5v0__nand2_1
XFILLER_108_227 vdd vss gf180mcu_fd_sc_mcu7t5v0__fill_2
XFILLER_87_1419 vdd vss gf180mcu_fd_sc_mcu7t5v0__fill_1
XFILLER_117_750 vdd vss gf180mcu_fd_sc_mcu7t5v0__fill_2
X_4609_ _0452_ _0460_ _0461_ _0462_ vdd vss gf180mcu_fd_sc_mcu7t5v0__oai21_1
XFILLER_123_208 vdd vss gf180mcu_fd_sc_mcu7t5v0__fill_2
XFILLER_11_1064 vdd vss gf180mcu_fd_sc_mcu7t5v0__fill_1
X_5589_ _1384_ _1393_ _1394_ _1396_ _1397_ vdd vss gf180mcu_fd_sc_mcu7t5v0__aoi211_1
XANTENNA__8037__CLK clknet_3_6_0_wb_clk_i vdd vss gf180mcu_fd_sc_mcu7t5v0__antenna
XFILLER_117_783 vdd vss gf180mcu_fd_sc_mcu7t5v0__fill_1
XFILLER_104_400 vdd vss gf180mcu_fd_sc_mcu7t5v0__fill_2
XFILLER_132_720 vdd vss gf180mcu_fd_sc_mcu7t5v0__fill_2
XFILLER_2_527 vdd vss gf180mcu_fd_sc_mcu7t5v0__fillcap_4
XFILLER_89_100 vdd vss gf180mcu_fd_sc_mcu7t5v0__fill_2
X_7328_ _2970_ _0214_ vdd vss gf180mcu_fd_sc_mcu7t5v0__clkbuf_1
XFILLER_89_111 vdd vss gf180mcu_fd_sc_mcu7t5v0__fill_2
XFILLER_116_293 vdd vss gf180mcu_fd_sc_mcu7t5v0__fill_2
XFILLER_117_66 vdd vss gf180mcu_fd_sc_mcu7t5v0__fillcap_4
XANTENNA__7645__A1 _2721_ vdd vss gf180mcu_fd_sc_mcu7t5v0__antenna
XFILLER_78_818 vdd vss gf180mcu_fd_sc_mcu7t5v0__fill_1
XFILLER_89_144 vdd vss gf180mcu_fd_sc_mcu7t5v0__fill_1
XFILLER_105_978 vdd vss gf180mcu_fd_sc_mcu7t5v0__fillcap_4
XFILLER_137_1266 vdd vss gf180mcu_fd_sc_mcu7t5v0__fill_1
X_7259_ _2828_ _0491_ _2910_ vdd vss gf180mcu_fd_sc_mcu7t5v0__nand2_1
XFILLER_77_306 vdd vss gf180mcu_fd_sc_mcu7t5v0__fill_2
XFILLER_137_1277 vdd vss gf180mcu_fd_sc_mcu7t5v0__fill_1
XFILLER_117_99 vdd vss gf180mcu_fd_sc_mcu7t5v0__fill_1
XANTENNA__5656__B1 _0580_ vdd vss gf180mcu_fd_sc_mcu7t5v0__antenna
XFILLER_137_1299 vdd vss gf180mcu_fd_sc_mcu7t5v0__fillcap_32
XFILLER_120_948 vdd vss gf180mcu_fd_sc_mcu7t5v0__fillcap_4
XFILLER_58_531 vdd vss gf180mcu_fd_sc_mcu7t5v0__fill_1
XFILLER_115_1564 vdd vss gf180mcu_fd_sc_mcu7t5v0__fillcap_16
XFILLER_19_918 vdd vss gf180mcu_fd_sc_mcu7t5v0__fillcap_4
XTAP_3202 vdd vss gf180mcu_fd_sc_mcu7t5v0__filltie
XTAP_3213 vdd vss gf180mcu_fd_sc_mcu7t5v0__filltie
XFILLER_93_14 vdd vss gf180mcu_fd_sc_mcu7t5v0__fill_2
XTAP_3224 vdd vss gf180mcu_fd_sc_mcu7t5v0__filltie
XTAP_3235 vdd vss gf180mcu_fd_sc_mcu7t5v0__filltie
XFILLER_85_383 vdd vss gf180mcu_fd_sc_mcu7t5v0__fillcap_8
XTAP_2501 vdd vss gf180mcu_fd_sc_mcu7t5v0__filltie
XTAP_3246 vdd vss gf180mcu_fd_sc_mcu7t5v0__filltie
XFILLER_73_545 vdd vss gf180mcu_fd_sc_mcu7t5v0__fillcap_16
XANTENNA_output37_I net37 vdd vss gf180mcu_fd_sc_mcu7t5v0__antenna
XTAP_3257 vdd vss gf180mcu_fd_sc_mcu7t5v0__filltie
XANTENNA__3959__I _3494_ vdd vss gf180mcu_fd_sc_mcu7t5v0__antenna
XTAP_2512 vdd vss gf180mcu_fd_sc_mcu7t5v0__filltie
XTAP_3268 vdd vss gf180mcu_fd_sc_mcu7t5v0__filltie
XFILLER_2_1254 vdd vss gf180mcu_fd_sc_mcu7t5v0__fill_1
XTAP_2523 vdd vss gf180mcu_fd_sc_mcu7t5v0__filltie
XTAP_3279 vdd vss gf180mcu_fd_sc_mcu7t5v0__filltie
XFILLER_73_567 vdd vss gf180mcu_fd_sc_mcu7t5v0__fill_1
XANTENNA__6335__I _2004_ vdd vss gf180mcu_fd_sc_mcu7t5v0__antenna
XTAP_2534 vdd vss gf180mcu_fd_sc_mcu7t5v0__filltie
XANTENNA__6620__A2 _2286_ vdd vss gf180mcu_fd_sc_mcu7t5v0__antenna
XTAP_1800 vdd vss gf180mcu_fd_sc_mcu7t5v0__filltie
XTAP_2545 vdd vss gf180mcu_fd_sc_mcu7t5v0__filltie
XTAP_1811 vdd vss gf180mcu_fd_sc_mcu7t5v0__filltie
XTAP_2556 vdd vss gf180mcu_fd_sc_mcu7t5v0__filltie
XTAP_1822 vdd vss gf180mcu_fd_sc_mcu7t5v0__filltie
XANTENNA__4631__A1 _0370_ vdd vss gf180mcu_fd_sc_mcu7t5v0__antenna
XTAP_2567 vdd vss gf180mcu_fd_sc_mcu7t5v0__filltie
XFILLER_54_792 vdd vss gf180mcu_fd_sc_mcu7t5v0__fill_2
XFILLER_60_228 vdd vss gf180mcu_fd_sc_mcu7t5v0__fillcap_4
XTAP_1833 vdd vss gf180mcu_fd_sc_mcu7t5v0__filltie
XTAP_2578 vdd vss gf180mcu_fd_sc_mcu7t5v0__filltie
XTAP_1844 vdd vss gf180mcu_fd_sc_mcu7t5v0__filltie
XTAP_2589 vdd vss gf180mcu_fd_sc_mcu7t5v0__filltie
XTAP_1855 vdd vss gf180mcu_fd_sc_mcu7t5v0__filltie
XFILLER_109_1324 vdd vss gf180mcu_fd_sc_mcu7t5v0__fillcap_4
XTAP_1866 vdd vss gf180mcu_fd_sc_mcu7t5v0__filltie
XFILLER_109_1335 vdd vss gf180mcu_fd_sc_mcu7t5v0__fillcap_4
XFILLER_109_1346 vdd vss gf180mcu_fd_sc_mcu7t5v0__fill_2
XFILLER_144_1237 vdd vss gf180mcu_fd_sc_mcu7t5v0__fillcap_4
XFILLER_13_144 vdd vss gf180mcu_fd_sc_mcu7t5v0__fillcap_64
XTAP_1877 vdd vss gf180mcu_fd_sc_mcu7t5v0__filltie
XTAP_1888 vdd vss gf180mcu_fd_sc_mcu7t5v0__filltie
XTAP_1899 vdd vss gf180mcu_fd_sc_mcu7t5v0__filltie
XFILLER_144_1259 vdd vss gf180mcu_fd_sc_mcu7t5v0__fill_1
XFILLER_41_486 vdd vss gf180mcu_fd_sc_mcu7t5v0__fill_2
XFILLER_9_137 vdd vss gf180mcu_fd_sc_mcu7t5v0__fillcap_4
XFILLER_122_1513 vdd vss gf180mcu_fd_sc_mcu7t5v0__fillcap_8
XANTENNA__4934__A2 _0780_ vdd vss gf180mcu_fd_sc_mcu7t5v0__antenna
XFILLER_6_811 vdd vss gf180mcu_fd_sc_mcu7t5v0__fillcap_4
XANTENNA__6136__A1 _1841_ vdd vss gf180mcu_fd_sc_mcu7t5v0__antenna
XANTENNA__6687__A2 _2300_ vdd vss gf180mcu_fd_sc_mcu7t5v0__antenna
XFILLER_108_750 vdd vss gf180mcu_fd_sc_mcu7t5v0__fill_2
XFILLER_5_354 vdd vss gf180mcu_fd_sc_mcu7t5v0__fill_1
XANTENNA__4698__A1 as2650.holding_reg\[5\] vdd vss gf180mcu_fd_sc_mcu7t5v0__antenna
XFILLER_120_1292 vdd vss gf180mcu_fd_sc_mcu7t5v0__fill_2
XFILLER_123_720 vdd vss gf180mcu_fd_sc_mcu7t5v0__fillcap_4
XFILLER_107_271 vdd vss gf180mcu_fd_sc_mcu7t5v0__fillcap_8
XFILLER_123_753 vdd vss gf180mcu_fd_sc_mcu7t5v0__fill_2
XANTENNA__7636__A1 _2253_ vdd vss gf180mcu_fd_sc_mcu7t5v0__antenna
XFILLER_9_1419 vdd vss gf180mcu_fd_sc_mcu7t5v0__fill_1
XANTENNA__6439__A2 _2119_ vdd vss gf180mcu_fd_sc_mcu7t5v0__antenna
XFILLER_123_775 vdd vss gf180mcu_fd_sc_mcu7t5v0__fill_2
XFILLER_68_306 vdd vss gf180mcu_fd_sc_mcu7t5v0__fill_2
XFILLER_111_915 vdd vss gf180mcu_fd_sc_mcu7t5v0__fill_2
XFILLER_123_786 vdd vss gf180mcu_fd_sc_mcu7t5v0__fillcap_16
XFILLER_95_114 vdd vss gf180mcu_fd_sc_mcu7t5v0__fill_2
XFILLER_49_520 vdd vss gf180mcu_fd_sc_mcu7t5v0__fill_2
XFILLER_27_1060 vdd vss gf180mcu_fd_sc_mcu7t5v0__fillcap_4
XFILLER_95_136 vdd vss gf180mcu_fd_sc_mcu7t5v0__fill_2
XFILLER_96_659 vdd vss gf180mcu_fd_sc_mcu7t5v0__fillcap_8
XFILLER_42_1525 vdd vss gf180mcu_fd_sc_mcu7t5v0__fill_1
XFILLER_77_840 vdd vss gf180mcu_fd_sc_mcu7t5v0__fillcap_8
XFILLER_49_542 vdd vss gf180mcu_fd_sc_mcu7t5v0__fill_2
XFILLER_67_70 vdd vss gf180mcu_fd_sc_mcu7t5v0__fill_1
XFILLER_114_1052 vdd vss gf180mcu_fd_sc_mcu7t5v0__fill_2
Xclkbuf_leaf_60_wb_clk_i clknet_3_1_0_wb_clk_i clknet_leaf_60_wb_clk_i vdd vss gf180mcu_fd_sc_mcu7t5v0__clkbuf_16
XFILLER_64_534 vdd vss gf180mcu_fd_sc_mcu7t5v0__fill_1
XFILLER_36_247 vdd vss gf180mcu_fd_sc_mcu7t5v0__fill_1
XFILLER_91_353 vdd vss gf180mcu_fd_sc_mcu7t5v0__fill_2
XFILLER_92_876 vdd vss gf180mcu_fd_sc_mcu7t5v0__fillcap_8
XANTENNA__6611__A2 _2277_ vdd vss gf180mcu_fd_sc_mcu7t5v0__antenna
X_4960_ _0808_ _0809_ vdd vss gf180mcu_fd_sc_mcu7t5v0__clkbuf_1
XANTENNA__7785__B _1252_ vdd vss gf180mcu_fd_sc_mcu7t5v0__antenna
X_4891_ _0435_ _0718_ _0735_ _0740_ _0741_ vdd vss gf180mcu_fd_sc_mcu7t5v0__aoi22_2
XFILLER_71_1209 vdd vss gf180mcu_fd_sc_mcu7t5v0__fillcap_64
XFILLER_60_762 vdd vss gf180mcu_fd_sc_mcu7t5v0__fill_2
X_6630_ _2241_ _2297_ vdd vss gf180mcu_fd_sc_mcu7t5v0__clkbuf_1
XFILLER_32_486 vdd vss gf180mcu_fd_sc_mcu7t5v0__fill_2
XFILLER_34_1031 vdd vss gf180mcu_fd_sc_mcu7t5v0__fillcap_64
XFILLER_80_2 vdd vss gf180mcu_fd_sc_mcu7t5v0__fillcap_8
X_6561_ _0312_ _1796_ _2228_ _3511_ _2229_ vdd vss gf180mcu_fd_sc_mcu7t5v0__oai211_1
X_5512_ _1319_ _1320_ vdd vss gf180mcu_fd_sc_mcu7t5v0__clkbuf_1
XFILLER_121_1034 vdd vss gf180mcu_fd_sc_mcu7t5v0__fill_1
XANTENNA__6127__A1 _1453_ vdd vss gf180mcu_fd_sc_mcu7t5v0__antenna
X_6492_ _3611_ _3576_ _1915_ _2169_ vdd vss gf180mcu_fd_sc_mcu7t5v0__oai21_1
XFILLER_121_1067 vdd vss gf180mcu_fd_sc_mcu7t5v0__fill_1
XFILLER_69_1138 vdd vss gf180mcu_fd_sc_mcu7t5v0__fillcap_64
X_5443_ _1251_ _1252_ vdd vss gf180mcu_fd_sc_mcu7t5v0__buf_1
XANTENNA__7875__A1 _2013_ vdd vss gf180mcu_fd_sc_mcu7t5v0__antenna
XANTENNA__4689__A1 _0531_ vdd vss gf180mcu_fd_sc_mcu7t5v0__antenna
XFILLER_105_208 vdd vss gf180mcu_fd_sc_mcu7t5v0__fillcap_4
XFILLER_105_219 vdd vss gf180mcu_fd_sc_mcu7t5v0__fill_2
XFILLER_126_580 vdd vss gf180mcu_fd_sc_mcu7t5v0__fill_2
X_5374_ _0967_ as2650.r123_2\[1\]\[3\] _1187_ _1188_ vdd vss gf180mcu_fd_sc_mcu7t5v0__mux2_2
XFILLER_99_420 vdd vss gf180mcu_fd_sc_mcu7t5v0__fill_2
XFILLER_99_442 vdd vss gf180mcu_fd_sc_mcu7t5v0__fill_2
X_7113_ _2579_ _2768_ _2769_ _2581_ _2770_ vdd vss gf180mcu_fd_sc_mcu7t5v0__oai211_1
X_4325_ _3859_ _3860_ vdd vss gf180mcu_fd_sc_mcu7t5v0__clkbuf_1
XFILLER_134_1406 vdd vss gf180mcu_fd_sc_mcu7t5v0__fill_2
X_8093_ _0212_ clknet_leaf_31_wb_clk_i as2650.stack\[7\]\[2\] vdd vss gf180mcu_fd_sc_mcu7t5v0__dffq_1
XFILLER_102_915 vdd vss gf180mcu_fd_sc_mcu7t5v0__fillcap_4
XFILLER_134_1428 vdd vss gf180mcu_fd_sc_mcu7t5v0__fill_2
X_7044_ _2001_ _2698_ _2700_ _2702_ _2378_ _2703_ vdd vss gf180mcu_fd_sc_mcu7t5v0__oai32_1
XFILLER_59_339 vdd vss gf180mcu_fd_sc_mcu7t5v0__fill_2
XFILLER_101_425 vdd vss gf180mcu_fd_sc_mcu7t5v0__fill_1
X_4256_ as2650.holding_reg\[0\] _3784_ _3792_ vdd vss gf180mcu_fd_sc_mcu7t5v0__nand2_1
XFILLER_113_296 vdd vss gf180mcu_fd_sc_mcu7t5v0__fill_2
XANTENNA__4161__I0 as2650.r123\[1\]\[1\] vdd vss gf180mcu_fd_sc_mcu7t5v0__antenna
XFILLER_74_309 vdd vss gf180mcu_fd_sc_mcu7t5v0__fill_2
XFILLER_101_469 vdd vss gf180mcu_fd_sc_mcu7t5v0__fillcap_8
XANTENNA__6850__A2 _2402_ vdd vss gf180mcu_fd_sc_mcu7t5v0__antenna
XFILLER_80_1084 vdd vss gf180mcu_fd_sc_mcu7t5v0__fillcap_8
X_4187_ _3722_ _3723_ vdd vss gf180mcu_fd_sc_mcu7t5v0__clkbuf_1
XFILLER_83_854 vdd vss gf180mcu_fd_sc_mcu7t5v0__fill_2
XFILLER_55_567 vdd vss gf180mcu_fd_sc_mcu7t5v0__fill_1
XANTENNA__6602__A2 _1649_ vdd vss gf180mcu_fd_sc_mcu7t5v0__antenna
XFILLER_110_1450 vdd vss gf180mcu_fd_sc_mcu7t5v0__fill_2
XFILLER_55_578 vdd vss gf180mcu_fd_sc_mcu7t5v0__fill_1
XFILLER_58_1521 vdd vss gf180mcu_fd_sc_mcu7t5v0__fillcap_4
XTAP_1107 vdd vss gf180mcu_fd_sc_mcu7t5v0__filltie
X_7946_ _0065_ clknet_leaf_49_wb_clk_i as2650.stack\[2\]\[8\] vdd vss gf180mcu_fd_sc_mcu7t5v0__dffq_1
XTAP_1118 vdd vss gf180mcu_fd_sc_mcu7t5v0__filltie
XTAP_1129 vdd vss gf180mcu_fd_sc_mcu7t5v0__filltie
XFILLER_110_1494 vdd vss gf180mcu_fd_sc_mcu7t5v0__fillcap_32
XFILLER_58_1576 vdd vss gf180mcu_fd_sc_mcu7t5v0__fillcap_4
X_7877_ _1414_ _2214_ _3455_ _3474_ vdd vss gf180mcu_fd_sc_mcu7t5v0__oai21_1
XFILLER_50_250 vdd vss gf180mcu_fd_sc_mcu7t5v0__fillcap_16
X_6828_ _2488_ _2438_ _2491_ _2492_ vdd vss gf180mcu_fd_sc_mcu7t5v0__nand3_1
XANTENNA__4831__C _0412_ vdd vss gf180mcu_fd_sc_mcu7t5v0__antenna
X_6759_ _2362_ _2423_ _2375_ _2424_ vdd vss gf180mcu_fd_sc_mcu7t5v0__oai21_1
XFILLER_17_1273 vdd vss gf180mcu_fd_sc_mcu7t5v0__fillcap_4
XFILLER_87_1205 vdd vss gf180mcu_fd_sc_mcu7t5v0__fill_2
XFILLER_137_878 vdd vss gf180mcu_fd_sc_mcu7t5v0__fill_2
XANTENNA__7866__A1 _3458_ vdd vss gf180mcu_fd_sc_mcu7t5v0__antenna
XANTENNA__6669__A2 _2300_ vdd vss gf180mcu_fd_sc_mcu7t5v0__antenna
XANTENNA__7714__I net40 vdd vss gf180mcu_fd_sc_mcu7t5v0__antenna
XFILLER_88_14 vdd vss gf180mcu_fd_sc_mcu7t5v0__fill_2
XANTENNA__6758__C _2373_ vdd vss gf180mcu_fd_sc_mcu7t5v0__antenna
XFILLER_105_720 vdd vss gf180mcu_fd_sc_mcu7t5v0__fillcap_4
XFILLER_117_580 vdd vss gf180mcu_fd_sc_mcu7t5v0__fillcap_4
XFILLER_3_847 vdd vss gf180mcu_fd_sc_mcu7t5v0__fillcap_4
XFILLER_88_47 vdd vss gf180mcu_fd_sc_mcu7t5v0__fill_2
XFILLER_137_1041 vdd vss gf180mcu_fd_sc_mcu7t5v0__fill_2
XFILLER_132_561 vdd vss gf180mcu_fd_sc_mcu7t5v0__fillcap_4
XFILLER_137_1063 vdd vss gf180mcu_fd_sc_mcu7t5v0__fill_2
XFILLER_132_572 vdd vss gf180mcu_fd_sc_mcu7t5v0__fill_1
XFILLER_132_583 vdd vss gf180mcu_fd_sc_mcu7t5v0__fill_1
XFILLER_137_1085 vdd vss gf180mcu_fd_sc_mcu7t5v0__fillcap_4
XFILLER_132_594 vdd vss gf180mcu_fd_sc_mcu7t5v0__fill_2
XFILLER_120_734 vdd vss gf180mcu_fd_sc_mcu7t5v0__fill_2
XFILLER_144_53 vdd vss gf180mcu_fd_sc_mcu7t5v0__fillcap_4
XFILLER_120_767 vdd vss gf180mcu_fd_sc_mcu7t5v0__fillcap_32
XFILLER_59_851 vdd vss gf180mcu_fd_sc_mcu7t5v0__fill_1
XFILLER_144_97 vdd vss gf180mcu_fd_sc_mcu7t5v0__fill_2
XFILLER_24_1244 vdd vss gf180mcu_fd_sc_mcu7t5v0__fillcap_64
XANTENNA__4852__A1 _0691_ vdd vss gf180mcu_fd_sc_mcu7t5v0__antenna
XFILLER_98_1312 vdd vss gf180mcu_fd_sc_mcu7t5v0__fill_1
XFILLER_101_981 vdd vss gf180mcu_fd_sc_mcu7t5v0__fill_2
XTAP_3010 vdd vss gf180mcu_fd_sc_mcu7t5v0__filltie
XFILLER_111_1225 vdd vss gf180mcu_fd_sc_mcu7t5v0__fill_2
XTAP_3021 vdd vss gf180mcu_fd_sc_mcu7t5v0__filltie
XFILLER_46_534 vdd vss gf180mcu_fd_sc_mcu7t5v0__fill_1
XFILLER_73_320 vdd vss gf180mcu_fd_sc_mcu7t5v0__fill_2
XFILLER_74_843 vdd vss gf180mcu_fd_sc_mcu7t5v0__fillcap_4
XTAP_3032 vdd vss gf180mcu_fd_sc_mcu7t5v0__filltie
XFILLER_46_545 vdd vss gf180mcu_fd_sc_mcu7t5v0__fill_2
XTAP_3043 vdd vss gf180mcu_fd_sc_mcu7t5v0__filltie
XFILLER_41_1580 vdd vss gf180mcu_fd_sc_mcu7t5v0__fill_1
XFILLER_37_73 vdd vss gf180mcu_fd_sc_mcu7t5v0__fillcap_64
XFILLER_18_247 vdd vss gf180mcu_fd_sc_mcu7t5v0__fill_1
XFILLER_74_865 vdd vss gf180mcu_fd_sc_mcu7t5v0__fill_1
XFILLER_111_1258 vdd vss gf180mcu_fd_sc_mcu7t5v0__fill_2
XTAP_3054 vdd vss gf180mcu_fd_sc_mcu7t5v0__filltie
XFILLER_74_876 vdd vss gf180mcu_fd_sc_mcu7t5v0__fillcap_8
XTAP_2320 vdd vss gf180mcu_fd_sc_mcu7t5v0__filltie
XFILLER_111_1269 vdd vss gf180mcu_fd_sc_mcu7t5v0__fill_2
XTAP_3065 vdd vss gf180mcu_fd_sc_mcu7t5v0__filltie
XTAP_3076 vdd vss gf180mcu_fd_sc_mcu7t5v0__filltie
XTAP_2331 vdd vss gf180mcu_fd_sc_mcu7t5v0__filltie
XTAP_3087 vdd vss gf180mcu_fd_sc_mcu7t5v0__filltie
XANTENNA__4604__A1 _0358_ vdd vss gf180mcu_fd_sc_mcu7t5v0__antenna
XTAP_2342 vdd vss gf180mcu_fd_sc_mcu7t5v0__filltie
XTAP_3098 vdd vss gf180mcu_fd_sc_mcu7t5v0__filltie
XTAP_2353 vdd vss gf180mcu_fd_sc_mcu7t5v0__filltie
XTAP_2364 vdd vss gf180mcu_fd_sc_mcu7t5v0__filltie
XFILLER_2_1095 vdd vss gf180mcu_fd_sc_mcu7t5v0__fillcap_4
XTAP_1630 vdd vss gf180mcu_fd_sc_mcu7t5v0__filltie
XFILLER_61_548 vdd vss gf180mcu_fd_sc_mcu7t5v0__fill_2