* NGSPICE file created from wrapped_as2650.ext - technology: gf180mcuC

* Black-box entry subcircuit for gf180mcu_fd_sc_mcu7t5v0__fill_2 abstract view
.subckt gf180mcu_fd_sc_mcu7t5v0__fill_2 VDD VSS
.ends

* Black-box entry subcircuit for gf180mcu_fd_sc_mcu7t5v0__fillcap_8 abstract view
.subckt gf180mcu_fd_sc_mcu7t5v0__fillcap_8 VDD VSS
.ends

* Black-box entry subcircuit for gf180mcu_fd_sc_mcu7t5v0__fill_1 abstract view
.subckt gf180mcu_fd_sc_mcu7t5v0__fill_1 VDD VSS
.ends

* Black-box entry subcircuit for gf180mcu_fd_sc_mcu7t5v0__antenna abstract view
.subckt gf180mcu_fd_sc_mcu7t5v0__antenna I VDD VSS
.ends

* Black-box entry subcircuit for gf180mcu_fd_sc_mcu7t5v0__fillcap_64 abstract view
.subckt gf180mcu_fd_sc_mcu7t5v0__fillcap_64 VDD VSS
.ends

* Black-box entry subcircuit for gf180mcu_fd_sc_mcu7t5v0__fillcap_4 abstract view
.subckt gf180mcu_fd_sc_mcu7t5v0__fillcap_4 VDD VSS
.ends

* Black-box entry subcircuit for gf180mcu_fd_sc_mcu7t5v0__nand4_1 abstract view
.subckt gf180mcu_fd_sc_mcu7t5v0__nand4_1 A1 A2 A3 A4 ZN VDD VSS
.ends

* Black-box entry subcircuit for gf180mcu_fd_sc_mcu7t5v0__nor2_1 abstract view
.subckt gf180mcu_fd_sc_mcu7t5v0__nor2_1 A1 A2 ZN VDD VSS
.ends

* Black-box entry subcircuit for gf180mcu_fd_sc_mcu7t5v0__oai21_1 abstract view
.subckt gf180mcu_fd_sc_mcu7t5v0__oai21_1 A1 A2 B ZN VDD VSS
.ends

* Black-box entry subcircuit for gf180mcu_fd_sc_mcu7t5v0__nand2_2 abstract view
.subckt gf180mcu_fd_sc_mcu7t5v0__nand2_2 A1 A2 ZN VDD VSS
.ends

* Black-box entry subcircuit for gf180mcu_fd_sc_mcu7t5v0__fillcap_16 abstract view
.subckt gf180mcu_fd_sc_mcu7t5v0__fillcap_16 VDD VSS
.ends

* Black-box entry subcircuit for gf180mcu_fd_sc_mcu7t5v0__clkbuf_1 abstract view
.subckt gf180mcu_fd_sc_mcu7t5v0__clkbuf_1 I Z VDD VSS
.ends

* Black-box entry subcircuit for gf180mcu_fd_sc_mcu7t5v0__buf_1 abstract view
.subckt gf180mcu_fd_sc_mcu7t5v0__buf_1 I Z VDD VSS
.ends

* Black-box entry subcircuit for gf180mcu_fd_sc_mcu7t5v0__nand3_1 abstract view
.subckt gf180mcu_fd_sc_mcu7t5v0__nand3_1 A1 A2 A3 ZN VDD VSS
.ends

* Black-box entry subcircuit for gf180mcu_fd_sc_mcu7t5v0__dffq_1 abstract view
.subckt gf180mcu_fd_sc_mcu7t5v0__dffq_1 D CLK Q VDD VSS
.ends

* Black-box entry subcircuit for gf180mcu_fd_sc_mcu7t5v0__filltie abstract view
.subckt gf180mcu_fd_sc_mcu7t5v0__filltie VDD VSS
.ends

* Black-box entry subcircuit for gf180mcu_fd_sc_mcu7t5v0__nor2_4 abstract view
.subckt gf180mcu_fd_sc_mcu7t5v0__nor2_4 A1 A2 ZN VDD VSS
.ends

* Black-box entry subcircuit for gf180mcu_fd_sc_mcu7t5v0__nand4_4 abstract view
.subckt gf180mcu_fd_sc_mcu7t5v0__nand4_4 A1 A2 A3 A4 ZN VDD VSS
.ends

* Black-box entry subcircuit for gf180mcu_fd_sc_mcu7t5v0__aoi221_1 abstract view
.subckt gf180mcu_fd_sc_mcu7t5v0__aoi221_1 A1 A2 B1 B2 C ZN VDD VSS
.ends

* Black-box entry subcircuit for gf180mcu_fd_sc_mcu7t5v0__nand2_1 abstract view
.subckt gf180mcu_fd_sc_mcu7t5v0__nand2_1 A1 A2 ZN VDD VSS
.ends

* Black-box entry subcircuit for gf180mcu_fd_sc_mcu7t5v0__oai211_1 abstract view
.subckt gf180mcu_fd_sc_mcu7t5v0__oai211_1 A1 A2 B C ZN VDD VSS
.ends

* Black-box entry subcircuit for gf180mcu_fd_sc_mcu7t5v0__nor3_2 abstract view
.subckt gf180mcu_fd_sc_mcu7t5v0__nor3_2 A1 A2 A3 ZN VDD VSS
.ends

* Black-box entry subcircuit for gf180mcu_fd_sc_mcu7t5v0__fillcap_32 abstract view
.subckt gf180mcu_fd_sc_mcu7t5v0__fillcap_32 VDD VSS
.ends

* Black-box entry subcircuit for gf180mcu_fd_sc_mcu7t5v0__mux2_2 abstract view
.subckt gf180mcu_fd_sc_mcu7t5v0__mux2_2 I0 I1 S Z VDD VSS
.ends

* Black-box entry subcircuit for gf180mcu_fd_sc_mcu7t5v0__clkbuf_2 abstract view
.subckt gf180mcu_fd_sc_mcu7t5v0__clkbuf_2 I Z VDD VSS
.ends

* Black-box entry subcircuit for gf180mcu_fd_sc_mcu7t5v0__aoi211_1 abstract view
.subckt gf180mcu_fd_sc_mcu7t5v0__aoi211_1 A1 A2 B C ZN VDD VSS
.ends

* Black-box entry subcircuit for gf180mcu_fd_sc_mcu7t5v0__mux4_2 abstract view
.subckt gf180mcu_fd_sc_mcu7t5v0__mux4_2 I0 I1 I2 I3 S0 S1 Z VDD VSS
.ends

* Black-box entry subcircuit for gf180mcu_fd_sc_mcu7t5v0__oai221_1 abstract view
.subckt gf180mcu_fd_sc_mcu7t5v0__oai221_1 A1 A2 B1 B2 C ZN VDD VSS
.ends

* Black-box entry subcircuit for gf180mcu_fd_sc_mcu7t5v0__or2_1 abstract view
.subckt gf180mcu_fd_sc_mcu7t5v0__or2_1 A1 A2 Z VDD VSS
.ends

* Black-box entry subcircuit for gf180mcu_fd_sc_mcu7t5v0__aoi21_1 abstract view
.subckt gf180mcu_fd_sc_mcu7t5v0__aoi21_1 A1 A2 B ZN VDD VSS
.ends

* Black-box entry subcircuit for gf180mcu_fd_sc_mcu7t5v0__nor3_4 abstract view
.subckt gf180mcu_fd_sc_mcu7t5v0__nor3_4 A1 A2 A3 ZN VDD VSS
.ends

* Black-box entry subcircuit for gf180mcu_fd_sc_mcu7t5v0__nand3_2 abstract view
.subckt gf180mcu_fd_sc_mcu7t5v0__nand3_2 A1 A2 A3 ZN VDD VSS
.ends

* Black-box entry subcircuit for gf180mcu_fd_sc_mcu7t5v0__or3_1 abstract view
.subckt gf180mcu_fd_sc_mcu7t5v0__or3_1 A1 A2 A3 Z VDD VSS
.ends

* Black-box entry subcircuit for gf180mcu_fd_sc_mcu7t5v0__aoi21_4 abstract view
.subckt gf180mcu_fd_sc_mcu7t5v0__aoi21_4 A1 A2 B ZN VDD VSS
.ends

* Black-box entry subcircuit for gf180mcu_fd_sc_mcu7t5v0__xor2_1 abstract view
.subckt gf180mcu_fd_sc_mcu7t5v0__xor2_1 A1 A2 Z VDD VSS
.ends

* Black-box entry subcircuit for gf180mcu_fd_sc_mcu7t5v0__oai32_1 abstract view
.subckt gf180mcu_fd_sc_mcu7t5v0__oai32_1 A1 A2 A3 B1 B2 ZN VDD VSS
.ends

* Black-box entry subcircuit for gf180mcu_fd_sc_mcu7t5v0__xor3_1 abstract view
.subckt gf180mcu_fd_sc_mcu7t5v0__xor3_1 A1 A2 A3 Z VDD VSS
.ends

* Black-box entry subcircuit for gf180mcu_fd_sc_mcu7t5v0__clkinv_1 abstract view
.subckt gf180mcu_fd_sc_mcu7t5v0__clkinv_1 I ZN VDD VSS
.ends

* Black-box entry subcircuit for gf180mcu_fd_sc_mcu7t5v0__clkbuf_3 abstract view
.subckt gf180mcu_fd_sc_mcu7t5v0__clkbuf_3 I Z VDD VSS
.ends

* Black-box entry subcircuit for gf180mcu_fd_sc_mcu7t5v0__endcap abstract view
.subckt gf180mcu_fd_sc_mcu7t5v0__endcap VDD VSS
.ends

* Black-box entry subcircuit for gf180mcu_fd_sc_mcu7t5v0__nor3_1 abstract view
.subckt gf180mcu_fd_sc_mcu7t5v0__nor3_1 A1 A2 A3 ZN VDD VSS
.ends

* Black-box entry subcircuit for gf180mcu_fd_sc_mcu7t5v0__and2_1 abstract view
.subckt gf180mcu_fd_sc_mcu7t5v0__and2_1 A1 A2 Z VDD VSS
.ends

* Black-box entry subcircuit for gf180mcu_fd_sc_mcu7t5v0__oai22_1 abstract view
.subckt gf180mcu_fd_sc_mcu7t5v0__oai22_1 A1 A2 B1 B2 ZN VDD VSS
.ends

* Black-box entry subcircuit for gf180mcu_fd_sc_mcu7t5v0__nor4_1 abstract view
.subckt gf180mcu_fd_sc_mcu7t5v0__nor4_1 A1 A2 A3 A4 ZN VDD VSS
.ends

* Black-box entry subcircuit for gf180mcu_fd_sc_mcu7t5v0__buf_2 abstract view
.subckt gf180mcu_fd_sc_mcu7t5v0__buf_2 I Z VDD VSS
.ends

* Black-box entry subcircuit for gf180mcu_fd_sc_mcu7t5v0__oai211_4 abstract view
.subckt gf180mcu_fd_sc_mcu7t5v0__oai211_4 A1 A2 B C ZN VDD VSS
.ends

* Black-box entry subcircuit for gf180mcu_fd_sc_mcu7t5v0__and3_1 abstract view
.subckt gf180mcu_fd_sc_mcu7t5v0__and3_1 A1 A2 A3 Z VDD VSS
.ends

* Black-box entry subcircuit for gf180mcu_fd_sc_mcu7t5v0__clkbuf_16 abstract view
.subckt gf180mcu_fd_sc_mcu7t5v0__clkbuf_16 I Z VDD VSS
.ends

* Black-box entry subcircuit for gf180mcu_fd_sc_mcu7t5v0__nor4_4 abstract view
.subckt gf180mcu_fd_sc_mcu7t5v0__nor4_4 A1 A2 A3 A4 ZN VDD VSS
.ends

* Black-box entry subcircuit for gf180mcu_fd_sc_mcu7t5v0__clkinv_2 abstract view
.subckt gf180mcu_fd_sc_mcu7t5v0__clkinv_2 I ZN VDD VSS
.ends

* Black-box entry subcircuit for gf180mcu_fd_sc_mcu7t5v0__oai31_2 abstract view
.subckt gf180mcu_fd_sc_mcu7t5v0__oai31_2 A1 A2 A3 B ZN VDD VSS
.ends

* Black-box entry subcircuit for gf180mcu_fd_sc_mcu7t5v0__or4_1 abstract view
.subckt gf180mcu_fd_sc_mcu7t5v0__or4_1 A1 A2 A3 A4 Z VDD VSS
.ends

* Black-box entry subcircuit for gf180mcu_fd_sc_mcu7t5v0__aoi22_1 abstract view
.subckt gf180mcu_fd_sc_mcu7t5v0__aoi22_1 A1 A2 B1 B2 ZN VDD VSS
.ends

* Black-box entry subcircuit for gf180mcu_fd_sc_mcu7t5v0__nand4_2 abstract view
.subckt gf180mcu_fd_sc_mcu7t5v0__nand4_2 A1 A2 A3 A4 ZN VDD VSS
.ends

* Black-box entry subcircuit for gf180mcu_fd_sc_mcu7t5v0__inv_1 abstract view
.subckt gf180mcu_fd_sc_mcu7t5v0__inv_1 I ZN VDD VSS
.ends

* Black-box entry subcircuit for gf180mcu_fd_sc_mcu7t5v0__aoi211_4 abstract view
.subckt gf180mcu_fd_sc_mcu7t5v0__aoi211_4 A1 A2 B C ZN VDD VSS
.ends

* Black-box entry subcircuit for gf180mcu_fd_sc_mcu7t5v0__nor2_2 abstract view
.subckt gf180mcu_fd_sc_mcu7t5v0__nor2_2 A1 A2 ZN VDD VSS
.ends

* Black-box entry subcircuit for gf180mcu_fd_sc_mcu7t5v0__clkbuf_8 abstract view
.subckt gf180mcu_fd_sc_mcu7t5v0__clkbuf_8 I Z VDD VSS
.ends

* Black-box entry subcircuit for gf180mcu_fd_sc_mcu7t5v0__aoi21_2 abstract view
.subckt gf180mcu_fd_sc_mcu7t5v0__aoi21_2 A1 A2 B ZN VDD VSS
.ends

* Black-box entry subcircuit for gf180mcu_fd_sc_mcu7t5v0__aoi221_4 abstract view
.subckt gf180mcu_fd_sc_mcu7t5v0__aoi221_4 A1 A2 B1 B2 C ZN VDD VSS
.ends

* Black-box entry subcircuit for gf180mcu_fd_sc_mcu7t5v0__mux4_1 abstract view
.subckt gf180mcu_fd_sc_mcu7t5v0__mux4_1 I0 I1 I2 I3 S0 S1 Z VDD VSS
.ends

* Black-box entry subcircuit for gf180mcu_fd_sc_mcu7t5v0__oai221_2 abstract view
.subckt gf180mcu_fd_sc_mcu7t5v0__oai221_2 A1 A2 B1 B2 C ZN VDD VSS
.ends

* Black-box entry subcircuit for gf180mcu_fd_sc_mcu7t5v0__nor4_2 abstract view
.subckt gf180mcu_fd_sc_mcu7t5v0__nor4_2 A1 A2 A3 A4 ZN VDD VSS
.ends

* Black-box entry subcircuit for gf180mcu_fd_sc_mcu7t5v0__oai31_1 abstract view
.subckt gf180mcu_fd_sc_mcu7t5v0__oai31_1 A1 A2 A3 B ZN VDD VSS
.ends

* Black-box entry subcircuit for gf180mcu_fd_sc_mcu7t5v0__oai211_2 abstract view
.subckt gf180mcu_fd_sc_mcu7t5v0__oai211_2 A1 A2 B C ZN VDD VSS
.ends

* Black-box entry subcircuit for gf180mcu_fd_sc_mcu7t5v0__oai21_4 abstract view
.subckt gf180mcu_fd_sc_mcu7t5v0__oai21_4 A1 A2 B ZN VDD VSS
.ends

* Black-box entry subcircuit for gf180mcu_fd_sc_mcu7t5v0__xnor2_1 abstract view
.subckt gf180mcu_fd_sc_mcu7t5v0__xnor2_1 A1 A2 ZN VDD VSS
.ends

* Black-box entry subcircuit for gf180mcu_fd_sc_mcu7t5v0__nand3_4 abstract view
.subckt gf180mcu_fd_sc_mcu7t5v0__nand3_4 A1 A2 A3 ZN VDD VSS
.ends

* Black-box entry subcircuit for gf180mcu_fd_sc_mcu7t5v0__aoi221_2 abstract view
.subckt gf180mcu_fd_sc_mcu7t5v0__aoi221_2 A1 A2 B1 B2 C ZN VDD VSS
.ends

* Black-box entry subcircuit for gf180mcu_fd_sc_mcu7t5v0__and4_1 abstract view
.subckt gf180mcu_fd_sc_mcu7t5v0__and4_1 A1 A2 A3 A4 Z VDD VSS
.ends

* Black-box entry subcircuit for gf180mcu_fd_sc_mcu7t5v0__xor2_2 abstract view
.subckt gf180mcu_fd_sc_mcu7t5v0__xor2_2 A1 A2 Z VDD VSS
.ends

* Black-box entry subcircuit for gf180mcu_fd_sc_mcu7t5v0__oai21_2 abstract view
.subckt gf180mcu_fd_sc_mcu7t5v0__oai21_2 A1 A2 B ZN VDD VSS
.ends

* Black-box entry subcircuit for gf180mcu_fd_sc_mcu7t5v0__aoi211_2 abstract view
.subckt gf180mcu_fd_sc_mcu7t5v0__aoi211_2 A1 A2 B C ZN VDD VSS
.ends

* Black-box entry subcircuit for gf180mcu_fd_sc_mcu7t5v0__tieh abstract view
.subckt gf180mcu_fd_sc_mcu7t5v0__tieh Z VDD VSS
.ends

* Black-box entry subcircuit for gf180mcu_fd_sc_mcu7t5v0__aoi222_1 abstract view
.subckt gf180mcu_fd_sc_mcu7t5v0__aoi222_1 A1 A2 B1 B2 C1 C2 ZN VDD VSS
.ends

* Black-box entry subcircuit for gf180mcu_fd_sc_mcu7t5v0__tiel abstract view
.subckt gf180mcu_fd_sc_mcu7t5v0__tiel ZN VDD VSS
.ends

* Black-box entry subcircuit for gf180mcu_fd_sc_mcu7t5v0__oai22_2 abstract view
.subckt gf180mcu_fd_sc_mcu7t5v0__oai22_2 A1 A2 B1 B2 ZN VDD VSS
.ends

* Black-box entry subcircuit for gf180mcu_fd_sc_mcu7t5v0__xor3_2 abstract view
.subckt gf180mcu_fd_sc_mcu7t5v0__xor3_2 A1 A2 A3 Z VDD VSS
.ends

* Black-box entry subcircuit for gf180mcu_fd_sc_mcu7t5v0__xnor3_1 abstract view
.subckt gf180mcu_fd_sc_mcu7t5v0__xnor3_1 A1 A2 A3 ZN VDD VSS
.ends

* Black-box entry subcircuit for gf180mcu_fd_sc_mcu7t5v0__and4_2 abstract view
.subckt gf180mcu_fd_sc_mcu7t5v0__and4_2 A1 A2 A3 A4 Z VDD VSS
.ends

* Black-box entry subcircuit for gf180mcu_fd_sc_mcu7t5v0__dlyc_1 abstract view
.subckt gf180mcu_fd_sc_mcu7t5v0__dlyc_1 I Z VDD VSS
.ends

* Black-box entry subcircuit for gf180mcu_fd_sc_mcu7t5v0__dlyd_1 abstract view
.subckt gf180mcu_fd_sc_mcu7t5v0__dlyd_1 I Z VDD VSS
.ends

* Black-box entry subcircuit for gf180mcu_fd_sc_mcu7t5v0__dlyb_1 abstract view
.subckt gf180mcu_fd_sc_mcu7t5v0__dlyb_1 I Z VDD VSS
.ends

* Black-box entry subcircuit for gf180mcu_fd_sc_mcu7t5v0__aoi22_2 abstract view
.subckt gf180mcu_fd_sc_mcu7t5v0__aoi22_2 A1 A2 B1 B2 ZN VDD VSS
.ends

* Black-box entry subcircuit for gf180mcu_fd_sc_mcu7t5v0__oai32_4 abstract view
.subckt gf180mcu_fd_sc_mcu7t5v0__oai32_4 A1 A2 A3 B1 B2 ZN VDD VSS
.ends

* Black-box entry subcircuit for gf180mcu_fd_sc_mcu7t5v0__aoi222_2 abstract view
.subckt gf180mcu_fd_sc_mcu7t5v0__aoi222_2 A1 A2 B1 B2 C1 C2 ZN VDD VSS
.ends

* Black-box entry subcircuit for gf180mcu_fd_sc_mcu7t5v0__oai222_1 abstract view
.subckt gf180mcu_fd_sc_mcu7t5v0__oai222_1 A1 A2 B1 B2 C1 C2 ZN VDD VSS
.ends

* Black-box entry subcircuit for gf180mcu_fd_sc_mcu7t5v0__aoi222_4 abstract view
.subckt gf180mcu_fd_sc_mcu7t5v0__aoi222_4 A1 A2 B1 B2 C1 C2 ZN VDD VSS
.ends

.subckt wrapped_as2650 io_in[0] io_in[10] io_in[11] io_in[12] io_in[13] io_in[14]
+ io_in[15] io_in[16] io_in[17] io_in[18] io_in[19] io_in[1] io_in[20] io_in[21] io_in[22]
+ io_in[23] io_in[24] io_in[25] io_in[26] io_in[27] io_in[28] io_in[29] io_in[2] io_in[30]
+ io_in[31] io_in[32] io_in[33] io_in[34] io_in[35] io_in[36] io_in[37] io_in[3] io_in[4]
+ io_in[5] io_in[6] io_in[7] io_in[8] io_in[9] io_oeb[0] io_oeb[10] io_oeb[11] io_oeb[12]
+ io_oeb[13] io_oeb[14] io_oeb[15] io_oeb[16] io_oeb[17] io_oeb[18] io_oeb[19] io_oeb[1]
+ io_oeb[20] io_oeb[21] io_oeb[22] io_oeb[23] io_oeb[24] io_oeb[25] io_oeb[26] io_oeb[27]
+ io_oeb[28] io_oeb[29] io_oeb[2] io_oeb[30] io_oeb[31] io_oeb[32] io_oeb[33] io_oeb[34]
+ io_oeb[35] io_oeb[36] io_oeb[37] io_oeb[3] io_oeb[4] io_oeb[5] io_oeb[6] io_oeb[7]
+ io_oeb[8] io_oeb[9] io_out[0] io_out[10] io_out[11] io_out[12] io_out[13] io_out[14]
+ io_out[15] io_out[16] io_out[17] io_out[18] io_out[19] io_out[1] io_out[20] io_out[21]
+ io_out[22] io_out[23] io_out[24] io_out[25] io_out[26] io_out[27] io_out[28] io_out[29]
+ io_out[2] io_out[30] io_out[31] io_out[32] io_out[33] io_out[34] io_out[35] io_out[36]
+ io_out[37] io_out[3] io_out[4] io_out[5] io_out[6] io_out[7] io_out[8] io_out[9]
+ vdd vss wb_clk_i wb_rst_i
XFILLER_79_380 vdd vss gf180mcu_fd_sc_mcu7t5v0__fill_2
XFILLER_95_840 vdd vss gf180mcu_fd_sc_mcu7t5v0__fillcap_8
XFILLER_95_851 vdd vss gf180mcu_fd_sc_mcu7t5v0__fill_1
XANTENNA__6209__A2 _2210_ vdd vss gf180mcu_fd_sc_mcu7t5v0__antenna
XANTENNA__3691__A2 _3150_ vdd vss gf180mcu_fd_sc_mcu7t5v0__antenna
XFILLER_82_512 vdd vss gf180mcu_fd_sc_mcu7t5v0__fill_2
XFILLER_27_428 vdd vss gf180mcu_fd_sc_mcu7t5v0__fillcap_64
XFILLER_94_372 vdd vss gf180mcu_fd_sc_mcu7t5v0__fill_2
XANTENNA__5968__A1 as2650.pc\[1\] vdd vss gf180mcu_fd_sc_mcu7t5v0__antenna
XFILLER_82_534 vdd vss gf180mcu_fd_sc_mcu7t5v0__fillcap_4
XFILLER_54_247 vdd vss gf180mcu_fd_sc_mcu7t5v0__fill_1
XFILLER_54_258 vdd vss gf180mcu_fd_sc_mcu7t5v0__fillcap_4
X_6914_ _1729_ _1818_ _2892_ _2895_ _2896_ vdd vss gf180mcu_fd_sc_mcu7t5v0__nand4_1
XFILLER_78_1150 vdd vss gf180mcu_fd_sc_mcu7t5v0__fill_1
XFILLER_23_634 vdd vss gf180mcu_fd_sc_mcu7t5v0__fillcap_4
XFILLER_1_1490 vdd vss gf180mcu_fd_sc_mcu7t5v0__fill_1
XFILLER_62_280 vdd vss gf180mcu_fd_sc_mcu7t5v0__fillcap_8
X_6845_ _0964_ _1109_ _2829_ vdd vss gf180mcu_fd_sc_mcu7t5v0__nor2_1
X_6776_ _2498_ _2757_ _2762_ _2763_ vdd vss gf180mcu_fd_sc_mcu7t5v0__oai21_1
XFILLER_126_1159 vdd vss gf180mcu_fd_sc_mcu7t5v0__fill_1
XFILLER_52_1312 vdd vss gf180mcu_fd_sc_mcu7t5v0__fill_1
X_3988_ _3297_ _3204_ _3523_ vdd vss gf180mcu_fd_sc_mcu7t5v0__nand2_2
XFILLER_108_1560 vdd vss gf180mcu_fd_sc_mcu7t5v0__fillcap_16
XANTENNA__6932__A3 _2855_ vdd vss gf180mcu_fd_sc_mcu7t5v0__antenna
X_5727_ _1040_ _1761_ vdd vss gf180mcu_fd_sc_mcu7t5v0__clkbuf_1
XANTENNA__3746__A3 _3281_ vdd vss gf180mcu_fd_sc_mcu7t5v0__antenna
XFILLER_109_728 vdd vss gf180mcu_fd_sc_mcu7t5v0__fillcap_8
XFILLER_104_1457 vdd vss gf180mcu_fd_sc_mcu7t5v0__fillcap_64
XFILLER_108_205 vdd vss gf180mcu_fd_sc_mcu7t5v0__fill_2
XANTENNA__6145__A1 _2159_ vdd vss gf180mcu_fd_sc_mcu7t5v0__antenna
X_5658_ _1700_ _1701_ vdd vss gf180mcu_fd_sc_mcu7t5v0__buf_1
XFILLER_87_1419 vdd vss gf180mcu_fd_sc_mcu7t5v0__fill_1
X_4609_ _0626_ _0793_ _0794_ _0795_ vdd vss gf180mcu_fd_sc_mcu7t5v0__nand3_1
XFILLER_102_1170 vdd vss gf180mcu_fd_sc_mcu7t5v0__fill_1
XFILLER_11_1064 vdd vss gf180mcu_fd_sc_mcu7t5v0__fill_1
X_5589_ _3251_ _1636_ vdd vss gf180mcu_fd_sc_mcu7t5v0__buf_1
XFILLER_85_1121 vdd vss gf180mcu_fd_sc_mcu7t5v0__fill_1
XFILLER_117_783 vdd vss gf180mcu_fd_sc_mcu7t5v0__fill_2
XFILLER_117_22 vdd vss gf180mcu_fd_sc_mcu7t5v0__fill_1
XFILLER_102_1192 vdd vss gf180mcu_fd_sc_mcu7t5v0__fill_2
XFILLER_104_400 vdd vss gf180mcu_fd_sc_mcu7t5v0__fill_2
XFILLER_132_720 vdd vss gf180mcu_fd_sc_mcu7t5v0__fill_1
X_7328_ _0151_ clknet_3_3_0_wb_clk_i as2650.addr_buff\[0\] vdd vss gf180mcu_fd_sc_mcu7t5v0__dffq_1
XFILLER_2_527 vdd vss gf180mcu_fd_sc_mcu7t5v0__fillcap_4
XFILLER_104_444 vdd vss gf180mcu_fd_sc_mcu7t5v0__fillcap_4
XANTENNA__6448__A2 _3391_ vdd vss gf180mcu_fd_sc_mcu7t5v0__antenna
XFILLER_78_818 vdd vss gf180mcu_fd_sc_mcu7t5v0__fillcap_8
XFILLER_81_1018 vdd vss gf180mcu_fd_sc_mcu7t5v0__fill_2
XFILLER_89_144 vdd vss gf180mcu_fd_sc_mcu7t5v0__fill_1
XFILLER_104_455 vdd vss gf180mcu_fd_sc_mcu7t5v0__fill_2
X_7259_ _0082_ clknet_leaf_7_wb_clk_i as2650.ins_reg\[5\] vdd vss gf180mcu_fd_sc_mcu7t5v0__dffq_1
XFILLER_133_1108 vdd vss gf180mcu_fd_sc_mcu7t5v0__fill_2
XFILLER_137_1277 vdd vss gf180mcu_fd_sc_mcu7t5v0__fill_1
XFILLER_77_328 vdd vss gf180mcu_fd_sc_mcu7t5v0__fill_2
XFILLER_131_296 vdd vss gf180mcu_fd_sc_mcu7t5v0__fillcap_8
XFILLER_58_531 vdd vss gf180mcu_fd_sc_mcu7t5v0__fill_1
XFILLER_115_1564 vdd vss gf180mcu_fd_sc_mcu7t5v0__fillcap_16
XFILLER_19_918 vdd vss gf180mcu_fd_sc_mcu7t5v0__fillcap_4
XFILLER_86_862 vdd vss gf180mcu_fd_sc_mcu7t5v0__fill_2
XTAP_3202 vdd vss gf180mcu_fd_sc_mcu7t5v0__filltie
XFILLER_58_575 vdd vss gf180mcu_fd_sc_mcu7t5v0__fill_2
XFILLER_111_1417 vdd vss gf180mcu_fd_sc_mcu7t5v0__fill_2
XTAP_3213 vdd vss gf180mcu_fd_sc_mcu7t5v0__filltie
XTAP_3224 vdd vss gf180mcu_fd_sc_mcu7t5v0__filltie
XFILLER_85_372 vdd vss gf180mcu_fd_sc_mcu7t5v0__fill_2
XTAP_3235 vdd vss gf180mcu_fd_sc_mcu7t5v0__filltie
XFILLER_85_394 vdd vss gf180mcu_fd_sc_mcu7t5v0__fillcap_4
XTAP_2501 vdd vss gf180mcu_fd_sc_mcu7t5v0__filltie
XTAP_3246 vdd vss gf180mcu_fd_sc_mcu7t5v0__filltie
XANTENNA__5959__A1 _0938_ vdd vss gf180mcu_fd_sc_mcu7t5v0__antenna
XANTENNA_output37_I net37 vdd vss gf180mcu_fd_sc_mcu7t5v0__antenna
XTAP_3257 vdd vss gf180mcu_fd_sc_mcu7t5v0__filltie
XANTENNA__3959__I _3493_ vdd vss gf180mcu_fd_sc_mcu7t5v0__antenna
XTAP_2512 vdd vss gf180mcu_fd_sc_mcu7t5v0__filltie
XTAP_3268 vdd vss gf180mcu_fd_sc_mcu7t5v0__filltie
XTAP_2523 vdd vss gf180mcu_fd_sc_mcu7t5v0__filltie
XTAP_3279 vdd vss gf180mcu_fd_sc_mcu7t5v0__filltie
XFILLER_73_567 vdd vss gf180mcu_fd_sc_mcu7t5v0__fill_1
XTAP_2534 vdd vss gf180mcu_fd_sc_mcu7t5v0__filltie
XTAP_1800 vdd vss gf180mcu_fd_sc_mcu7t5v0__filltie
XTAP_2545 vdd vss gf180mcu_fd_sc_mcu7t5v0__filltie
XTAP_1811 vdd vss gf180mcu_fd_sc_mcu7t5v0__filltie
XTAP_2556 vdd vss gf180mcu_fd_sc_mcu7t5v0__filltie
XTAP_1822 vdd vss gf180mcu_fd_sc_mcu7t5v0__filltie
XFILLER_60_217 vdd vss gf180mcu_fd_sc_mcu7t5v0__fill_1
XTAP_2567 vdd vss gf180mcu_fd_sc_mcu7t5v0__filltie
XTAP_1833 vdd vss gf180mcu_fd_sc_mcu7t5v0__filltie
XTAP_2578 vdd vss gf180mcu_fd_sc_mcu7t5v0__filltie
XTAP_1844 vdd vss gf180mcu_fd_sc_mcu7t5v0__filltie
XTAP_2589 vdd vss gf180mcu_fd_sc_mcu7t5v0__filltie
XTAP_1855 vdd vss gf180mcu_fd_sc_mcu7t5v0__filltie
XTAP_1866 vdd vss gf180mcu_fd_sc_mcu7t5v0__filltie
XFILLER_109_1346 vdd vss gf180mcu_fd_sc_mcu7t5v0__fill_2
XFILLER_144_1237 vdd vss gf180mcu_fd_sc_mcu7t5v0__fillcap_8
XFILLER_13_144 vdd vss gf180mcu_fd_sc_mcu7t5v0__fillcap_64
XTAP_1877 vdd vss gf180mcu_fd_sc_mcu7t5v0__filltie
XTAP_1888 vdd vss gf180mcu_fd_sc_mcu7t5v0__filltie
XTAP_1899 vdd vss gf180mcu_fd_sc_mcu7t5v0__filltie
XANTENNA__5187__A2 _1304_ vdd vss gf180mcu_fd_sc_mcu7t5v0__antenna
XANTENNA__6384__A1 _1888_ vdd vss gf180mcu_fd_sc_mcu7t5v0__antenna
XFILLER_144_1259 vdd vss gf180mcu_fd_sc_mcu7t5v0__fill_1
XFILLER_9_137 vdd vss gf180mcu_fd_sc_mcu7t5v0__fillcap_4
XFILLER_107_1070 vdd vss gf180mcu_fd_sc_mcu7t5v0__fillcap_8
XFILLER_6_811 vdd vss gf180mcu_fd_sc_mcu7t5v0__fillcap_4
XANTENNA__6136__A1 _2009_ vdd vss gf180mcu_fd_sc_mcu7t5v0__antenna
XANTENNA__6136__B2 _2155_ vdd vss gf180mcu_fd_sc_mcu7t5v0__antenna
XFILLER_5_354 vdd vss gf180mcu_fd_sc_mcu7t5v0__fill_1
XFILLER_120_1281 vdd vss gf180mcu_fd_sc_mcu7t5v0__fill_2
XFILLER_108_772 vdd vss gf180mcu_fd_sc_mcu7t5v0__fill_2
XFILLER_123_720 vdd vss gf180mcu_fd_sc_mcu7t5v0__fillcap_4
XFILLER_107_293 vdd vss gf180mcu_fd_sc_mcu7t5v0__fill_2
XFILLER_9_1419 vdd vss gf180mcu_fd_sc_mcu7t5v0__fill_1
XANTENNA__6439__A2 _1047_ vdd vss gf180mcu_fd_sc_mcu7t5v0__antenna
XANTENNA__5498__I0 _1324_ vdd vss gf180mcu_fd_sc_mcu7t5v0__antenna
XFILLER_111_937 vdd vss gf180mcu_fd_sc_mcu7t5v0__fillcap_16
XFILLER_95_125 vdd vss gf180mcu_fd_sc_mcu7t5v0__fill_1
XFILLER_27_1060 vdd vss gf180mcu_fd_sc_mcu7t5v0__fillcap_4
XFILLER_42_1525 vdd vss gf180mcu_fd_sc_mcu7t5v0__fill_1
XFILLER_76_350 vdd vss gf180mcu_fd_sc_mcu7t5v0__fill_2
XFILLER_97_1003 vdd vss gf180mcu_fd_sc_mcu7t5v0__fillcap_16
XFILLER_64_523 vdd vss gf180mcu_fd_sc_mcu7t5v0__fill_2
XFILLER_64_534 vdd vss gf180mcu_fd_sc_mcu7t5v0__fill_1
XFILLER_36_247 vdd vss gf180mcu_fd_sc_mcu7t5v0__fill_1
XFILLER_91_342 vdd vss gf180mcu_fd_sc_mcu7t5v0__fill_2
XFILLER_64_589 vdd vss gf180mcu_fd_sc_mcu7t5v0__fillcap_8
X_4960_ _0338_ _1131_ vdd vss gf180mcu_fd_sc_mcu7t5v0__clkbuf_1
XFILLER_75_1312 vdd vss gf180mcu_fd_sc_mcu7t5v0__fill_2
XANTENNA__4622__A1 _0676_ vdd vss gf180mcu_fd_sc_mcu7t5v0__antenna
XFILLER_79_1481 vdd vss gf180mcu_fd_sc_mcu7t5v0__fillcap_8
XFILLER_91_375 vdd vss gf180mcu_fd_sc_mcu7t5v0__fill_1
X_3911_ _3258_ _3282_ _3447_ vdd vss gf180mcu_fd_sc_mcu7t5v0__nor2_4
XFILLER_60_740 vdd vss gf180mcu_fd_sc_mcu7t5v0__fillcap_4
X_4891_ _1009_ _1021_ _1031_ _1061_ _1062_ vdd vss gf180mcu_fd_sc_mcu7t5v0__nand4_4
XFILLER_71_1209 vdd vss gf180mcu_fd_sc_mcu7t5v0__fill_1
X_6630_ _2597_ _2612_ _2620_ _1600_ _1154_ _2621_ vdd vss gf180mcu_fd_sc_mcu7t5v0__aoi221_1
X_3842_ _3353_ _3362_ _3377_ _3378_ vdd vss gf180mcu_fd_sc_mcu7t5v0__oai21_1
XANTENNA__5178__A2 _1307_ vdd vss gf180mcu_fd_sc_mcu7t5v0__antenna
XFILLER_34_1031 vdd vss gf180mcu_fd_sc_mcu7t5v0__fillcap_64
XFILLER_80_2 vdd vss gf180mcu_fd_sc_mcu7t5v0__fillcap_16
XFILLER_73_1091 vdd vss gf180mcu_fd_sc_mcu7t5v0__fillcap_4
X_6561_ _2494_ _0583_ _2566_ vdd vss gf180mcu_fd_sc_mcu7t5v0__nand2_1
XFILLER_125_1170 vdd vss gf180mcu_fd_sc_mcu7t5v0__fill_2
X_3773_ _3297_ _3299_ _3309_ vdd vss gf180mcu_fd_sc_mcu7t5v0__nor2_1
X_5512_ _1108_ _1562_ vdd vss gf180mcu_fd_sc_mcu7t5v0__buf_1
XFILLER_118_525 vdd vss gf180mcu_fd_sc_mcu7t5v0__fillcap_4
XANTENNA__6127__A1 _0872_ vdd vss gf180mcu_fd_sc_mcu7t5v0__antenna
X_6492_ _1098_ _1118_ _2501_ _1121_ _2502_ vdd vss gf180mcu_fd_sc_mcu7t5v0__oai211_1
XFILLER_121_1067 vdd vss gf180mcu_fd_sc_mcu7t5v0__fillcap_8
XFILLER_118_558 vdd vss gf180mcu_fd_sc_mcu7t5v0__fill_2
XFILLER_69_1138 vdd vss gf180mcu_fd_sc_mcu7t5v0__fillcap_64
X_5443_ _1045_ _1500_ _1501_ vdd vss gf180mcu_fd_sc_mcu7t5v0__nor2_1
XFILLER_133_506 vdd vss gf180mcu_fd_sc_mcu7t5v0__fillcap_4
XFILLER_86_1441 vdd vss gf180mcu_fd_sc_mcu7t5v0__fillcap_4
XFILLER_99_420 vdd vss gf180mcu_fd_sc_mcu7t5v0__fillcap_4
X_5374_ _1440_ _1441_ _1442_ _1443_ vdd vss gf180mcu_fd_sc_mcu7t5v0__nor3_2
XFILLER_99_431 vdd vss gf180mcu_fd_sc_mcu7t5v0__fill_2
XFILLER_114_742 vdd vss gf180mcu_fd_sc_mcu7t5v0__fill_2
X_7113_ as2650.overflow _3065_ _0884_ _3071_ vdd vss gf180mcu_fd_sc_mcu7t5v0__oai21_1
XFILLER_82_1327 vdd vss gf180mcu_fd_sc_mcu7t5v0__fill_2
XFILLER_113_230 vdd vss gf180mcu_fd_sc_mcu7t5v0__fill_2
X_4325_ _0527_ _0528_ vdd vss gf180mcu_fd_sc_mcu7t5v0__buf_1
XFILLER_102_904 vdd vss gf180mcu_fd_sc_mcu7t5v0__fill_2
XFILLER_114_786 vdd vss gf180mcu_fd_sc_mcu7t5v0__fillcap_4
XFILLER_86_114 vdd vss gf180mcu_fd_sc_mcu7t5v0__fill_2
X_7044_ _0499_ _3005_ _3008_ _0244_ vdd vss gf180mcu_fd_sc_mcu7t5v0__oai21_1
XFILLER_101_425 vdd vss gf180mcu_fd_sc_mcu7t5v0__fill_1
XFILLER_80_1040 vdd vss gf180mcu_fd_sc_mcu7t5v0__fill_2
XFILLER_101_436 vdd vss gf180mcu_fd_sc_mcu7t5v0__fillcap_4
X_4256_ _0458_ _0459_ _0460_ vdd vss gf180mcu_fd_sc_mcu7t5v0__nand2_1
XFILLER_86_147 vdd vss gf180mcu_fd_sc_mcu7t5v0__fillcap_4
XFILLER_132_1130 vdd vss gf180mcu_fd_sc_mcu7t5v0__fillcap_4
XFILLER_74_309 vdd vss gf180mcu_fd_sc_mcu7t5v0__fill_2
XFILLER_80_1073 vdd vss gf180mcu_fd_sc_mcu7t5v0__fill_2
XFILLER_101_469 vdd vss gf180mcu_fd_sc_mcu7t5v0__fill_2
XFILLER_55_501 vdd vss gf180mcu_fd_sc_mcu7t5v0__fill_1
XFILLER_28_715 vdd vss gf180mcu_fd_sc_mcu7t5v0__fillcap_16
X_4187_ _3393_ _0391_ _0392_ vdd vss gf180mcu_fd_sc_mcu7t5v0__nand2_1
XANTENNA__3664__A2 _3154_ vdd vss gf180mcu_fd_sc_mcu7t5v0__antenna
XFILLER_110_981 vdd vss gf180mcu_fd_sc_mcu7t5v0__fill_2
XFILLER_83_854 vdd vss gf180mcu_fd_sc_mcu7t5v0__fill_1
XFILLER_103_35 vdd vss gf180mcu_fd_sc_mcu7t5v0__fill_2
XFILLER_83_865 vdd vss gf180mcu_fd_sc_mcu7t5v0__fillcap_4
XFILLER_55_567 vdd vss gf180mcu_fd_sc_mcu7t5v0__fill_1
XFILLER_58_1521 vdd vss gf180mcu_fd_sc_mcu7t5v0__fillcap_4
XFILLER_55_578 vdd vss gf180mcu_fd_sc_mcu7t5v0__fill_1
XFILLER_55_589 vdd vss gf180mcu_fd_sc_mcu7t5v0__fillcap_32
XTAP_1107 vdd vss gf180mcu_fd_sc_mcu7t5v0__filltie
XFILLER_70_515 vdd vss gf180mcu_fd_sc_mcu7t5v0__fill_2
XFILLER_103_79 vdd vss gf180mcu_fd_sc_mcu7t5v0__fill_2
XTAP_1118 vdd vss gf180mcu_fd_sc_mcu7t5v0__filltie
XFILLER_82_386 vdd vss gf180mcu_fd_sc_mcu7t5v0__fillcap_4
XTAP_1129 vdd vss gf180mcu_fd_sc_mcu7t5v0__filltie
XFILLER_58_1576 vdd vss gf180mcu_fd_sc_mcu7t5v0__fillcap_4
XFILLER_50_250 vdd vss gf180mcu_fd_sc_mcu7t5v0__fillcap_64
X_6828_ _1126_ _2684_ _2811_ _2812_ _2458_ _2813_ vdd vss gf180mcu_fd_sc_mcu7t5v0__aoi221_1
X_6759_ _2613_ _2745_ _2746_ vdd vss gf180mcu_fd_sc_mcu7t5v0__nand2_1
XFILLER_104_1210 vdd vss gf180mcu_fd_sc_mcu7t5v0__fill_2
XFILLER_17_1273 vdd vss gf180mcu_fd_sc_mcu7t5v0__fillcap_4
XFILLER_109_525 vdd vss gf180mcu_fd_sc_mcu7t5v0__fill_2
XFILLER_87_1216 vdd vss gf180mcu_fd_sc_mcu7t5v0__fill_2
XANTENNA__7427__CLK clknet_3_2_0_wb_clk_i vdd vss gf180mcu_fd_sc_mcu7t5v0__antenna
XFILLER_3_847 vdd vss gf180mcu_fd_sc_mcu7t5v0__fillcap_4
XFILLER_78_615 vdd vss gf180mcu_fd_sc_mcu7t5v0__fill_2
XFILLER_132_572 vdd vss gf180mcu_fd_sc_mcu7t5v0__fill_2
XFILLER_104_263 vdd vss gf180mcu_fd_sc_mcu7t5v0__fill_2
XFILLER_105_786 vdd vss gf180mcu_fd_sc_mcu7t5v0__fillcap_4
XFILLER_132_583 vdd vss gf180mcu_fd_sc_mcu7t5v0__fillcap_8
XFILLER_104_274 vdd vss gf180mcu_fd_sc_mcu7t5v0__fill_2
XFILLER_144_53 vdd vss gf180mcu_fd_sc_mcu7t5v0__fillcap_4
XANTENNA__7094__A2 _3036_ vdd vss gf180mcu_fd_sc_mcu7t5v0__antenna
XFILLER_78_659 vdd vss gf180mcu_fd_sc_mcu7t5v0__fillcap_8
XANTENNA__6774__B _2760_ vdd vss gf180mcu_fd_sc_mcu7t5v0__antenna
XFILLER_59_851 vdd vss gf180mcu_fd_sc_mcu7t5v0__fill_1
XFILLER_144_97 vdd vss gf180mcu_fd_sc_mcu7t5v0__fill_2
XFILLER_77_158 vdd vss gf180mcu_fd_sc_mcu7t5v0__fill_2
XFILLER_24_1244 vdd vss gf180mcu_fd_sc_mcu7t5v0__fillcap_64
XFILLER_77_169 vdd vss gf180mcu_fd_sc_mcu7t5v0__fill_2
XANTENNA__4852__A1 _0914_ vdd vss gf180mcu_fd_sc_mcu7t5v0__antenna
XFILLER_98_1312 vdd vss gf180mcu_fd_sc_mcu7t5v0__fill_1
XFILLER_101_981 vdd vss gf180mcu_fd_sc_mcu7t5v0__fill_2
XANTENNA__6493__C _1158_ vdd vss gf180mcu_fd_sc_mcu7t5v0__antenna
XTAP_3010 vdd vss gf180mcu_fd_sc_mcu7t5v0__filltie
XFILLER_58_372 vdd vss gf180mcu_fd_sc_mcu7t5v0__fill_2
XTAP_3021 vdd vss gf180mcu_fd_sc_mcu7t5v0__filltie
XFILLER_46_534 vdd vss gf180mcu_fd_sc_mcu7t5v0__fillcap_64
XFILLER_111_1236 vdd vss gf180mcu_fd_sc_mcu7t5v0__fill_2
XTAP_3032 vdd vss gf180mcu_fd_sc_mcu7t5v0__filltie
XFILLER_85_180 vdd vss gf180mcu_fd_sc_mcu7t5v0__fill_2
XTAP_3043 vdd vss gf180mcu_fd_sc_mcu7t5v0__filltie
XFILLER_41_1580 vdd vss gf180mcu_fd_sc_mcu7t5v0__fill_1
XFILLER_37_73 vdd vss gf180mcu_fd_sc_mcu7t5v0__fillcap_64
XFILLER_18_247 vdd vss gf180mcu_fd_sc_mcu7t5v0__fill_1
XFILLER_111_1258 vdd vss gf180mcu_fd_sc_mcu7t5v0__fill_2
XTAP_3054 vdd vss gf180mcu_fd_sc_mcu7t5v0__filltie
XTAP_2320 vdd vss gf180mcu_fd_sc_mcu7t5v0__filltie
XTAP_3065 vdd vss gf180mcu_fd_sc_mcu7t5v0__filltie
XTAP_3076 vdd vss gf180mcu_fd_sc_mcu7t5v0__filltie
XTAP_2331 vdd vss gf180mcu_fd_sc_mcu7t5v0__filltie
XTAP_3087 vdd vss gf180mcu_fd_sc_mcu7t5v0__filltie
XANTENNA__4604__A1 _0785_ vdd vss gf180mcu_fd_sc_mcu7t5v0__antenna
XTAP_2342 vdd vss gf180mcu_fd_sc_mcu7t5v0__filltie
XTAP_3098 vdd vss gf180mcu_fd_sc_mcu7t5v0__filltie
XTAP_2353 vdd vss gf180mcu_fd_sc_mcu7t5v0__filltie
XFILLER_73_397 vdd vss gf180mcu_fd_sc_mcu7t5v0__fill_2
XTAP_2364 vdd vss gf180mcu_fd_sc_mcu7t5v0__filltie
XTAP_1630 vdd vss gf180mcu_fd_sc_mcu7t5v0__filltie
XTAP_2375 vdd vss gf180mcu_fd_sc_mcu7t5v0__filltie
XTAP_1641 vdd vss gf180mcu_fd_sc_mcu7t5v0__filltie
XFILLER_42_740 vdd vss gf180mcu_fd_sc_mcu7t5v0__fillcap_4
XTAP_2386 vdd vss gf180mcu_fd_sc_mcu7t5v0__filltie
XFILLER_57_1064 vdd vss gf180mcu_fd_sc_mcu7t5v0__fill_1
XTAP_1652 vdd vss gf180mcu_fd_sc_mcu7t5v0__filltie
XTAP_2397 vdd vss gf180mcu_fd_sc_mcu7t5v0__filltie
XTAP_1663 vdd vss gf180mcu_fd_sc_mcu7t5v0__filltie
XFILLER_109_1132 vdd vss gf180mcu_fd_sc_mcu7t5v0__fillcap_4
XTAP_1674 vdd vss gf180mcu_fd_sc_mcu7t5v0__filltie
XANTENNA__6357__A1 _0985_ vdd vss gf180mcu_fd_sc_mcu7t5v0__antenna
XTAP_1685 vdd vss gf180mcu_fd_sc_mcu7t5v0__filltie
XFILLER_109_1154 vdd vss gf180mcu_fd_sc_mcu7t5v0__fillcap_4
XTAP_1696 vdd vss gf180mcu_fd_sc_mcu7t5v0__filltie
XFILLER_41_283 vdd vss gf180mcu_fd_sc_mcu7t5v0__fill_1
XFILLER_30_957 vdd vss gf180mcu_fd_sc_mcu7t5v0__fill_1
XFILLER_35_1351 vdd vss gf180mcu_fd_sc_mcu7t5v0__fillcap_64
XFILLER_122_1310 vdd vss gf180mcu_fd_sc_mcu7t5v0__fill_2
XFILLER_128_812 vdd vss gf180mcu_fd_sc_mcu7t5v0__fillcap_4
XANTENNA__5580__A2 _3567_ vdd vss gf180mcu_fd_sc_mcu7t5v0__antenna
XFILLER_127_333 vdd vss gf180mcu_fd_sc_mcu7t5v0__fill_2
XFILLER_128_867 vdd vss gf180mcu_fd_sc_mcu7t5v0__fill_2
XFILLER_128_889 vdd vss gf180mcu_fd_sc_mcu7t5v0__fill_2