* NGSPICE file created from wrapped_as2650.ext - technology: gf180mcuC

* Black-box entry subcircuit for gf180mcu_fd_sc_mcu7t5v0__fill_2 abstract view
.subckt gf180mcu_fd_sc_mcu7t5v0__fill_2 VDD VSS
.ends

* Black-box entry subcircuit for gf180mcu_fd_sc_mcu7t5v0__antenna abstract view
.subckt gf180mcu_fd_sc_mcu7t5v0__antenna I VDD VSS
.ends

* Black-box entry subcircuit for gf180mcu_fd_sc_mcu7t5v0__fill_1 abstract view
.subckt gf180mcu_fd_sc_mcu7t5v0__fill_1 VDD VSS
.ends

* Black-box entry subcircuit for gf180mcu_fd_sc_mcu7t5v0__buf_1 abstract view
.subckt gf180mcu_fd_sc_mcu7t5v0__buf_1 I Z VDD VSS
.ends

* Black-box entry subcircuit for gf180mcu_fd_sc_mcu7t5v0__aoi21_1 abstract view
.subckt gf180mcu_fd_sc_mcu7t5v0__aoi21_1 A1 A2 B ZN VDD VSS
.ends

* Black-box entry subcircuit for gf180mcu_fd_sc_mcu7t5v0__oai21_1 abstract view
.subckt gf180mcu_fd_sc_mcu7t5v0__oai21_1 A1 A2 B ZN VDD VSS
.ends

* Black-box entry subcircuit for gf180mcu_fd_sc_mcu7t5v0__fillcap_4 abstract view
.subckt gf180mcu_fd_sc_mcu7t5v0__fillcap_4 VDD VSS
.ends

* Black-box entry subcircuit for gf180mcu_fd_sc_mcu7t5v0__fillcap_16 abstract view
.subckt gf180mcu_fd_sc_mcu7t5v0__fillcap_16 VDD VSS
.ends

* Black-box entry subcircuit for gf180mcu_fd_sc_mcu7t5v0__fillcap_8 abstract view
.subckt gf180mcu_fd_sc_mcu7t5v0__fillcap_8 VDD VSS
.ends

* Black-box entry subcircuit for gf180mcu_fd_sc_mcu7t5v0__fillcap_64 abstract view
.subckt gf180mcu_fd_sc_mcu7t5v0__fillcap_64 VDD VSS
.ends

* Black-box entry subcircuit for gf180mcu_fd_sc_mcu7t5v0__clkbuf_1 abstract view
.subckt gf180mcu_fd_sc_mcu7t5v0__clkbuf_1 I Z VDD VSS
.ends

* Black-box entry subcircuit for gf180mcu_fd_sc_mcu7t5v0__aoi22_1 abstract view
.subckt gf180mcu_fd_sc_mcu7t5v0__aoi22_1 A1 A2 B1 B2 ZN VDD VSS
.ends

* Black-box entry subcircuit for gf180mcu_fd_sc_mcu7t5v0__and2_1 abstract view
.subckt gf180mcu_fd_sc_mcu7t5v0__and2_1 A1 A2 Z VDD VSS
.ends

* Black-box entry subcircuit for gf180mcu_fd_sc_mcu7t5v0__nand2_1 abstract view
.subckt gf180mcu_fd_sc_mcu7t5v0__nand2_1 A1 A2 ZN VDD VSS
.ends

* Black-box entry subcircuit for gf180mcu_fd_sc_mcu7t5v0__mux2_2 abstract view
.subckt gf180mcu_fd_sc_mcu7t5v0__mux2_2 I0 I1 S Z VDD VSS
.ends

* Black-box entry subcircuit for gf180mcu_fd_sc_mcu7t5v0__nand3_1 abstract view
.subckt gf180mcu_fd_sc_mcu7t5v0__nand3_1 A1 A2 A3 ZN VDD VSS
.ends

* Black-box entry subcircuit for gf180mcu_fd_sc_mcu7t5v0__fillcap_32 abstract view
.subckt gf180mcu_fd_sc_mcu7t5v0__fillcap_32 VDD VSS
.ends

* Black-box entry subcircuit for gf180mcu_fd_sc_mcu7t5v0__or2_1 abstract view
.subckt gf180mcu_fd_sc_mcu7t5v0__or2_1 A1 A2 Z VDD VSS
.ends

* Black-box entry subcircuit for gf180mcu_fd_sc_mcu7t5v0__filltie abstract view
.subckt gf180mcu_fd_sc_mcu7t5v0__filltie VDD VSS
.ends

* Black-box entry subcircuit for gf180mcu_fd_sc_mcu7t5v0__dffq_1 abstract view
.subckt gf180mcu_fd_sc_mcu7t5v0__dffq_1 D CLK Q VDD VSS
.ends

* Black-box entry subcircuit for gf180mcu_fd_sc_mcu7t5v0__xor2_1 abstract view
.subckt gf180mcu_fd_sc_mcu7t5v0__xor2_1 A1 A2 Z VDD VSS
.ends

* Black-box entry subcircuit for gf180mcu_fd_sc_mcu7t5v0__aoi211_4 abstract view
.subckt gf180mcu_fd_sc_mcu7t5v0__aoi211_4 A1 A2 B C ZN VDD VSS
.ends

* Black-box entry subcircuit for gf180mcu_fd_sc_mcu7t5v0__xor3_1 abstract view
.subckt gf180mcu_fd_sc_mcu7t5v0__xor3_1 A1 A2 A3 Z VDD VSS
.ends

* Black-box entry subcircuit for gf180mcu_fd_sc_mcu7t5v0__tiel abstract view
.subckt gf180mcu_fd_sc_mcu7t5v0__tiel ZN VDD VSS
.ends

* Black-box entry subcircuit for gf180mcu_fd_sc_mcu7t5v0__aoi21_2 abstract view
.subckt gf180mcu_fd_sc_mcu7t5v0__aoi21_2 A1 A2 B ZN VDD VSS
.ends

* Black-box entry subcircuit for gf180mcu_fd_sc_mcu7t5v0__tieh abstract view
.subckt gf180mcu_fd_sc_mcu7t5v0__tieh Z VDD VSS
.ends

* Black-box entry subcircuit for gf180mcu_fd_sc_mcu7t5v0__clkinv_1 abstract view
.subckt gf180mcu_fd_sc_mcu7t5v0__clkinv_1 I ZN VDD VSS
.ends

* Black-box entry subcircuit for gf180mcu_fd_sc_mcu7t5v0__nor2_2 abstract view
.subckt gf180mcu_fd_sc_mcu7t5v0__nor2_2 A1 A2 ZN VDD VSS
.ends

* Black-box entry subcircuit for gf180mcu_fd_sc_mcu7t5v0__oai211_1 abstract view
.subckt gf180mcu_fd_sc_mcu7t5v0__oai211_1 A1 A2 B C ZN VDD VSS
.ends

* Black-box entry subcircuit for gf180mcu_fd_sc_mcu7t5v0__nor2_1 abstract view
.subckt gf180mcu_fd_sc_mcu7t5v0__nor2_1 A1 A2 ZN VDD VSS
.ends

* Black-box entry subcircuit for gf180mcu_fd_sc_mcu7t5v0__nor4_4 abstract view
.subckt gf180mcu_fd_sc_mcu7t5v0__nor4_4 A1 A2 A3 A4 ZN VDD VSS
.ends

* Black-box entry subcircuit for gf180mcu_fd_sc_mcu7t5v0__nor3_2 abstract view
.subckt gf180mcu_fd_sc_mcu7t5v0__nor3_2 A1 A2 A3 ZN VDD VSS
.ends

* Black-box entry subcircuit for gf180mcu_fd_sc_mcu7t5v0__oai31_1 abstract view
.subckt gf180mcu_fd_sc_mcu7t5v0__oai31_1 A1 A2 A3 B ZN VDD VSS
.ends

* Black-box entry subcircuit for gf180mcu_fd_sc_mcu7t5v0__nor4_1 abstract view
.subckt gf180mcu_fd_sc_mcu7t5v0__nor4_1 A1 A2 A3 A4 ZN VDD VSS
.ends

* Black-box entry subcircuit for gf180mcu_fd_sc_mcu7t5v0__nor3_1 abstract view
.subckt gf180mcu_fd_sc_mcu7t5v0__nor3_1 A1 A2 A3 ZN VDD VSS
.ends

* Black-box entry subcircuit for gf180mcu_fd_sc_mcu7t5v0__aoi211_1 abstract view
.subckt gf180mcu_fd_sc_mcu7t5v0__aoi211_1 A1 A2 B C ZN VDD VSS
.ends

* Black-box entry subcircuit for gf180mcu_fd_sc_mcu7t5v0__oai22_2 abstract view
.subckt gf180mcu_fd_sc_mcu7t5v0__oai22_2 A1 A2 B1 B2 ZN VDD VSS
.ends

* Black-box entry subcircuit for gf180mcu_fd_sc_mcu7t5v0__clkbuf_16 abstract view
.subckt gf180mcu_fd_sc_mcu7t5v0__clkbuf_16 I Z VDD VSS
.ends

* Black-box entry subcircuit for gf180mcu_fd_sc_mcu7t5v0__oai221_1 abstract view
.subckt gf180mcu_fd_sc_mcu7t5v0__oai221_1 A1 A2 B1 B2 C ZN VDD VSS
.ends

* Black-box entry subcircuit for gf180mcu_fd_sc_mcu7t5v0__nor4_2 abstract view
.subckt gf180mcu_fd_sc_mcu7t5v0__nor4_2 A1 A2 A3 A4 ZN VDD VSS
.ends

* Black-box entry subcircuit for gf180mcu_fd_sc_mcu7t5v0__inv_1 abstract view
.subckt gf180mcu_fd_sc_mcu7t5v0__inv_1 I ZN VDD VSS
.ends

* Black-box entry subcircuit for gf180mcu_fd_sc_mcu7t5v0__xnor3_1 abstract view
.subckt gf180mcu_fd_sc_mcu7t5v0__xnor3_1 A1 A2 A3 ZN VDD VSS
.ends

* Black-box entry subcircuit for gf180mcu_fd_sc_mcu7t5v0__oai22_1 abstract view
.subckt gf180mcu_fd_sc_mcu7t5v0__oai22_1 A1 A2 B1 B2 ZN VDD VSS
.ends

* Black-box entry subcircuit for gf180mcu_fd_sc_mcu7t5v0__endcap abstract view
.subckt gf180mcu_fd_sc_mcu7t5v0__endcap VDD VSS
.ends

* Black-box entry subcircuit for gf180mcu_fd_sc_mcu7t5v0__and3_1 abstract view
.subckt gf180mcu_fd_sc_mcu7t5v0__and3_1 A1 A2 A3 Z VDD VSS
.ends

* Black-box entry subcircuit for gf180mcu_fd_sc_mcu7t5v0__aoi221_1 abstract view
.subckt gf180mcu_fd_sc_mcu7t5v0__aoi221_1 A1 A2 B1 B2 C ZN VDD VSS
.ends

* Black-box entry subcircuit for gf180mcu_fd_sc_mcu7t5v0__clkbuf_3 abstract view
.subckt gf180mcu_fd_sc_mcu7t5v0__clkbuf_3 I Z VDD VSS
.ends

* Black-box entry subcircuit for gf180mcu_fd_sc_mcu7t5v0__aoi222_1 abstract view
.subckt gf180mcu_fd_sc_mcu7t5v0__aoi222_1 A1 A2 B1 B2 C1 C2 ZN VDD VSS
.ends

* Black-box entry subcircuit for gf180mcu_fd_sc_mcu7t5v0__xnor2_1 abstract view
.subckt gf180mcu_fd_sc_mcu7t5v0__xnor2_1 A1 A2 ZN VDD VSS
.ends

* Black-box entry subcircuit for gf180mcu_fd_sc_mcu7t5v0__clkbuf_2 abstract view
.subckt gf180mcu_fd_sc_mcu7t5v0__clkbuf_2 I Z VDD VSS
.ends

* Black-box entry subcircuit for gf180mcu_fd_sc_mcu7t5v0__clkbuf_8 abstract view
.subckt gf180mcu_fd_sc_mcu7t5v0__clkbuf_8 I Z VDD VSS
.ends

* Black-box entry subcircuit for gf180mcu_fd_sc_mcu7t5v0__xor3_2 abstract view
.subckt gf180mcu_fd_sc_mcu7t5v0__xor3_2 A1 A2 A3 Z VDD VSS
.ends

* Black-box entry subcircuit for gf180mcu_fd_sc_mcu7t5v0__nand4_2 abstract view
.subckt gf180mcu_fd_sc_mcu7t5v0__nand4_2 A1 A2 A3 A4 ZN VDD VSS
.ends

* Black-box entry subcircuit for gf180mcu_fd_sc_mcu7t5v0__nand2_2 abstract view
.subckt gf180mcu_fd_sc_mcu7t5v0__nand2_2 A1 A2 ZN VDD VSS
.ends

* Black-box entry subcircuit for gf180mcu_fd_sc_mcu7t5v0__clkinv_2 abstract view
.subckt gf180mcu_fd_sc_mcu7t5v0__clkinv_2 I ZN VDD VSS
.ends

* Black-box entry subcircuit for gf180mcu_fd_sc_mcu7t5v0__aoi22_2 abstract view
.subckt gf180mcu_fd_sc_mcu7t5v0__aoi22_2 A1 A2 B1 B2 ZN VDD VSS
.ends

* Black-box entry subcircuit for gf180mcu_fd_sc_mcu7t5v0__nand4_1 abstract view
.subckt gf180mcu_fd_sc_mcu7t5v0__nand4_1 A1 A2 A3 A4 ZN VDD VSS
.ends

* Black-box entry subcircuit for gf180mcu_fd_sc_mcu7t5v0__mux4_2 abstract view
.subckt gf180mcu_fd_sc_mcu7t5v0__mux4_2 I0 I1 I2 I3 S0 S1 Z VDD VSS
.ends

* Black-box entry subcircuit for gf180mcu_fd_sc_mcu7t5v0__aoi211_2 abstract view
.subckt gf180mcu_fd_sc_mcu7t5v0__aoi211_2 A1 A2 B C ZN VDD VSS
.ends

* Black-box entry subcircuit for gf180mcu_fd_sc_mcu7t5v0__aoi221_4 abstract view
.subckt gf180mcu_fd_sc_mcu7t5v0__aoi221_4 A1 A2 B1 B2 C ZN VDD VSS
.ends

* Black-box entry subcircuit for gf180mcu_fd_sc_mcu7t5v0__oai32_1 abstract view
.subckt gf180mcu_fd_sc_mcu7t5v0__oai32_1 A1 A2 A3 B1 B2 ZN VDD VSS
.ends

* Black-box entry subcircuit for gf180mcu_fd_sc_mcu7t5v0__oai211_4 abstract view
.subckt gf180mcu_fd_sc_mcu7t5v0__oai211_4 A1 A2 B C ZN VDD VSS
.ends

* Black-box entry subcircuit for gf180mcu_fd_sc_mcu7t5v0__oai22_4 abstract view
.subckt gf180mcu_fd_sc_mcu7t5v0__oai22_4 A1 A2 B1 B2 ZN VDD VSS
.ends

* Black-box entry subcircuit for gf180mcu_fd_sc_mcu7t5v0__or3_1 abstract view
.subckt gf180mcu_fd_sc_mcu7t5v0__or3_1 A1 A2 A3 Z VDD VSS
.ends

* Black-box entry subcircuit for gf180mcu_fd_sc_mcu7t5v0__oai21_4 abstract view
.subckt gf180mcu_fd_sc_mcu7t5v0__oai21_4 A1 A2 B ZN VDD VSS
.ends

* Black-box entry subcircuit for gf180mcu_fd_sc_mcu7t5v0__oai21_2 abstract view
.subckt gf180mcu_fd_sc_mcu7t5v0__oai21_2 A1 A2 B ZN VDD VSS
.ends

* Black-box entry subcircuit for gf180mcu_fd_sc_mcu7t5v0__and4_1 abstract view
.subckt gf180mcu_fd_sc_mcu7t5v0__and4_1 A1 A2 A3 A4 Z VDD VSS
.ends

* Black-box entry subcircuit for gf180mcu_fd_sc_mcu7t5v0__dlyc_1 abstract view
.subckt gf180mcu_fd_sc_mcu7t5v0__dlyc_1 I Z VDD VSS
.ends

* Black-box entry subcircuit for gf180mcu_fd_sc_mcu7t5v0__aoi222_4 abstract view
.subckt gf180mcu_fd_sc_mcu7t5v0__aoi222_4 A1 A2 B1 B2 C1 C2 ZN VDD VSS
.ends

* Black-box entry subcircuit for gf180mcu_fd_sc_mcu7t5v0__aoi221_2 abstract view
.subckt gf180mcu_fd_sc_mcu7t5v0__aoi221_2 A1 A2 B1 B2 C ZN VDD VSS
.ends

* Black-box entry subcircuit for gf180mcu_fd_sc_mcu7t5v0__dlyb_1 abstract view
.subckt gf180mcu_fd_sc_mcu7t5v0__dlyb_1 I Z VDD VSS
.ends

* Black-box entry subcircuit for gf180mcu_fd_sc_mcu7t5v0__nor3_4 abstract view
.subckt gf180mcu_fd_sc_mcu7t5v0__nor3_4 A1 A2 A3 ZN VDD VSS
.ends

* Black-box entry subcircuit for gf180mcu_fd_sc_mcu7t5v0__nand3_2 abstract view
.subckt gf180mcu_fd_sc_mcu7t5v0__nand3_2 A1 A2 A3 ZN VDD VSS
.ends

* Black-box entry subcircuit for gf180mcu_fd_sc_mcu7t5v0__or4_1 abstract view
.subckt gf180mcu_fd_sc_mcu7t5v0__or4_1 A1 A2 A3 A4 Z VDD VSS
.ends

* Black-box entry subcircuit for gf180mcu_fd_sc_mcu7t5v0__dffq_2 abstract view
.subckt gf180mcu_fd_sc_mcu7t5v0__dffq_2 D CLK Q VDD VSS
.ends

* Black-box entry subcircuit for gf180mcu_fd_sc_mcu7t5v0__buf_2 abstract view
.subckt gf180mcu_fd_sc_mcu7t5v0__buf_2 I Z VDD VSS
.ends

* Black-box entry subcircuit for gf180mcu_fd_sc_mcu7t5v0__oai211_2 abstract view
.subckt gf180mcu_fd_sc_mcu7t5v0__oai211_2 A1 A2 B C ZN VDD VSS
.ends

* Black-box entry subcircuit for gf180mcu_fd_sc_mcu7t5v0__nand4_4 abstract view
.subckt gf180mcu_fd_sc_mcu7t5v0__nand4_4 A1 A2 A3 A4 ZN VDD VSS
.ends

* Black-box entry subcircuit for gf180mcu_fd_sc_mcu7t5v0__oai31_2 abstract view
.subckt gf180mcu_fd_sc_mcu7t5v0__oai31_2 A1 A2 A3 B ZN VDD VSS
.ends

* Black-box entry subcircuit for gf180mcu_fd_sc_mcu7t5v0__aoi21_4 abstract view
.subckt gf180mcu_fd_sc_mcu7t5v0__aoi21_4 A1 A2 B ZN VDD VSS
.ends

* Black-box entry subcircuit for gf180mcu_fd_sc_mcu7t5v0__oai32_4 abstract view
.subckt gf180mcu_fd_sc_mcu7t5v0__oai32_4 A1 A2 A3 B1 B2 ZN VDD VSS
.ends

* Black-box entry subcircuit for gf180mcu_fd_sc_mcu7t5v0__oai221_4 abstract view
.subckt gf180mcu_fd_sc_mcu7t5v0__oai221_4 A1 A2 B1 B2 C ZN VDD VSS
.ends

* Black-box entry subcircuit for gf180mcu_fd_sc_mcu7t5v0__mux4_1 abstract view
.subckt gf180mcu_fd_sc_mcu7t5v0__mux4_1 I0 I1 I2 I3 S0 S1 Z VDD VSS
.ends

* Black-box entry subcircuit for gf180mcu_fd_sc_mcu7t5v0__oai32_2 abstract view
.subckt gf180mcu_fd_sc_mcu7t5v0__oai32_2 A1 A2 A3 B1 B2 ZN VDD VSS
.ends

* Black-box entry subcircuit for gf180mcu_fd_sc_mcu7t5v0__oai33_1 abstract view
.subckt gf180mcu_fd_sc_mcu7t5v0__oai33_1 A1 A2 A3 B1 B2 B3 ZN VDD VSS
.ends

* Black-box entry subcircuit for gf180mcu_fd_sc_mcu7t5v0__aoi222_2 abstract view
.subckt gf180mcu_fd_sc_mcu7t5v0__aoi222_2 A1 A2 B1 B2 C1 C2 ZN VDD VSS
.ends

* Black-box entry subcircuit for gf180mcu_fd_sc_mcu7t5v0__mux4_4 abstract view
.subckt gf180mcu_fd_sc_mcu7t5v0__mux4_4 I0 I1 I2 I3 S0 S1 Z VDD VSS
.ends

* Black-box entry subcircuit for gf180mcu_fd_sc_mcu7t5v0__oai222_2 abstract view
.subckt gf180mcu_fd_sc_mcu7t5v0__oai222_2 A1 A2 B1 B2 C1 C2 ZN VDD VSS
.ends

* Black-box entry subcircuit for gf180mcu_fd_sc_mcu7t5v0__xor2_2 abstract view
.subckt gf180mcu_fd_sc_mcu7t5v0__xor2_2 A1 A2 Z VDD VSS
.ends

* Black-box entry subcircuit for gf180mcu_fd_sc_mcu7t5v0__oai222_1 abstract view
.subckt gf180mcu_fd_sc_mcu7t5v0__oai222_1 A1 A2 B1 B2 C1 C2 ZN VDD VSS
.ends

* Black-box entry subcircuit for gf180mcu_fd_sc_mcu7t5v0__oai221_2 abstract view
.subckt gf180mcu_fd_sc_mcu7t5v0__oai221_2 A1 A2 B1 B2 C ZN VDD VSS
.ends

* Black-box entry subcircuit for gf180mcu_fd_sc_mcu7t5v0__or3_2 abstract view
.subckt gf180mcu_fd_sc_mcu7t5v0__or3_2 A1 A2 A3 Z VDD VSS
.ends

* Black-box entry subcircuit for gf180mcu_fd_sc_mcu7t5v0__and3_2 abstract view
.subckt gf180mcu_fd_sc_mcu7t5v0__and3_2 A1 A2 A3 Z VDD VSS
.ends

.subckt wrapped_as2650 io_in[0] io_in[10] io_in[11] io_in[12] io_in[13] io_in[14]
+ io_in[15] io_in[16] io_in[17] io_in[18] io_in[19] io_in[1] io_in[20] io_in[21] io_in[22]
+ io_in[23] io_in[24] io_in[25] io_in[26] io_in[27] io_in[28] io_in[29] io_in[2] io_in[30]
+ io_in[31] io_in[32] io_in[33] io_in[34] io_in[35] io_in[36] io_in[37] io_in[3] io_in[4]
+ io_in[5] io_in[6] io_in[7] io_in[8] io_in[9] io_oeb[0] io_oeb[10] io_oeb[11] io_oeb[12]
+ io_oeb[13] io_oeb[14] io_oeb[15] io_oeb[16] io_oeb[17] io_oeb[18] io_oeb[19] io_oeb[1]
+ io_oeb[20] io_oeb[21] io_oeb[22] io_oeb[23] io_oeb[24] io_oeb[25] io_oeb[26] io_oeb[27]
+ io_oeb[28] io_oeb[29] io_oeb[2] io_oeb[30] io_oeb[31] io_oeb[32] io_oeb[33] io_oeb[34]
+ io_oeb[35] io_oeb[36] io_oeb[37] io_oeb[3] io_oeb[4] io_oeb[5] io_oeb[6] io_oeb[7]
+ io_oeb[8] io_oeb[9] io_out[0] io_out[10] io_out[11] io_out[12] io_out[13] io_out[14]
+ io_out[15] io_out[16] io_out[17] io_out[18] io_out[19] io_out[1] io_out[20] io_out[21]
+ io_out[22] io_out[23] io_out[24] io_out[25] io_out[26] io_out[27] io_out[28] io_out[29]
+ io_out[2] io_out[30] io_out[31] io_out[32] io_out[33] io_out[34] io_out[35] io_out[36]
+ io_out[37] io_out[3] io_out[4] io_out[5] io_out[6] io_out[7] io_out[8] io_out[9]
+ la_data_out[0] la_data_out[10] la_data_out[11] la_data_out[12] la_data_out[13] la_data_out[14]
+ la_data_out[15] la_data_out[16] la_data_out[17] la_data_out[18] la_data_out[19]
+ la_data_out[1] la_data_out[20] la_data_out[21] la_data_out[22] la_data_out[23] la_data_out[24]
+ la_data_out[25] la_data_out[26] la_data_out[27] la_data_out[28] la_data_out[29]
+ la_data_out[2] la_data_out[30] la_data_out[31] la_data_out[32] la_data_out[33] la_data_out[34]
+ la_data_out[35] la_data_out[36] la_data_out[37] la_data_out[38] la_data_out[39]
+ la_data_out[3] la_data_out[40] la_data_out[41] la_data_out[42] la_data_out[43] la_data_out[44]
+ la_data_out[45] la_data_out[46] la_data_out[47] la_data_out[48] la_data_out[49]
+ la_data_out[4] la_data_out[50] la_data_out[51] la_data_out[52] la_data_out[53] la_data_out[54]
+ la_data_out[55] la_data_out[56] la_data_out[57] la_data_out[58] la_data_out[59]
+ la_data_out[5] la_data_out[60] la_data_out[61] la_data_out[62] la_data_out[63] la_data_out[6]
+ la_data_out[7] la_data_out[8] la_data_out[9] vdd vss wb_clk_i
XFILLER_132_1322 vdd vss gf180mcu_fd_sc_mcu7t5v0__fill_2
XANTENNA__07383__I _01817_ vdd vss gf180mcu_fd_sc_mcu7t5v0__antenna
XFILLER_95_851 vdd vss gf180mcu_fd_sc_mcu7t5v0__fill_1
X_05903_ _05756_ _05757_ vdd vss gf180mcu_fd_sc_mcu7t5v0__buf_1
X_06883_ _01251_ _01303_ _01323_ _01324_ vdd vss gf180mcu_fd_sc_mcu7t5v0__aoi21_1
X_09671_ _03787_ _03788_ _03833_ _03834_ vdd vss gf180mcu_fd_sc_mcu7t5v0__oai21_1
XANTENNA__07534__A1 _01854_ vdd vss gf180mcu_fd_sc_mcu7t5v0__antenna
XFILLER_27_417 vdd vss gf180mcu_fd_sc_mcu7t5v0__fillcap_4
XFILLER_55_726 vdd vss gf180mcu_fd_sc_mcu7t5v0__fillcap_16
X_05834_ as2650.ins_reg\[1\] _05688_ vdd vss gf180mcu_fd_sc_mcu7t5v0__buf_1
X_08622_ net94 _02776_ _02894_ _02895_ vdd vss gf180mcu_fd_sc_mcu7t5v0__oai21_1
XFILLER_27_428 vdd vss gf180mcu_fd_sc_mcu7t5v0__fill_1
XFILLER_94_372 vdd vss gf180mcu_fd_sc_mcu7t5v0__fillcap_4
XFILLER_82_534 vdd vss gf180mcu_fd_sc_mcu7t5v0__fillcap_8
XFILLER_54_247 vdd vss gf180mcu_fd_sc_mcu7t5v0__fill_1
XFILLER_130_1090 vdd vss gf180mcu_fd_sc_mcu7t5v0__fill_2
XFILLER_3_1777 vdd vss gf180mcu_fd_sc_mcu7t5v0__fillcap_64
XFILLER_149_1841 vdd vss gf180mcu_fd_sc_mcu7t5v0__fillcap_4
X_08553_ _01610_ _02826_ vdd vss gf180mcu_fd_sc_mcu7t5v0__clkbuf_1
XFILLER_36_962 vdd vss gf180mcu_fd_sc_mcu7t5v0__fill_1
XANTENNA__09287__A1 as2650.stack\[2\]\[1\] vdd vss gf180mcu_fd_sc_mcu7t5v0__antenna
XFILLER_36_973 vdd vss gf180mcu_fd_sc_mcu7t5v0__fillcap_8
XFILLER_165_1131 vdd vss gf180mcu_fd_sc_mcu7t5v0__fillcap_4
X_07504_ as2650.stack\[7\]\[13\] _01933_ _01934_ as2650.stack\[6\]\[13\] _01935_ vdd
+ vss gf180mcu_fd_sc_mcu7t5v0__aoi22_1
X_08484_ _01143_ _02733_ _02757_ vdd vss gf180mcu_fd_sc_mcu7t5v0__and2_1
XANTENNA__07837__A2 _02197_ vdd vss gf180mcu_fd_sc_mcu7t5v0__antenna
XFILLER_1_1490 vdd vss gf180mcu_fd_sc_mcu7t5v0__fill_1
XFILLER_50_420 vdd vss gf180mcu_fd_sc_mcu7t5v0__fill_2
XFILLER_74_1047 vdd vss gf180mcu_fd_sc_mcu7t5v0__fill_2
XANTENNA__05848__A1 _05700_ vdd vss gf180mcu_fd_sc_mcu7t5v0__antenna
XFILLER_23_656 vdd vss gf180mcu_fd_sc_mcu7t5v0__fill_2
XFILLER_51_965 vdd vss gf180mcu_fd_sc_mcu7t5v0__fillcap_4
XANTENNA__10841__A1 _04167_ vdd vss gf180mcu_fd_sc_mcu7t5v0__antenna
X_07435_ _01791_ _01869_ vdd vss gf180mcu_fd_sc_mcu7t5v0__clkbuf_1
XFILLER_167_105 vdd vss gf180mcu_fd_sc_mcu7t5v0__fillcap_4
XANTENNA__09039__A1 _01884_ vdd vss gf180mcu_fd_sc_mcu7t5v0__antenna
XANTENNA__10249__I _03165_ vdd vss gf180mcu_fd_sc_mcu7t5v0__antenna
XFILLER_168_18 vdd vss gf180mcu_fd_sc_mcu7t5v0__fillcap_4
XFILLER_167_116 vdd vss gf180mcu_fd_sc_mcu7t5v0__fill_2
XFILLER_52_1312 vdd vss gf180mcu_fd_sc_mcu7t5v0__fill_1
XFILLER_71_1935 vdd vss gf180mcu_fd_sc_mcu7t5v0__fill_2
XFILLER_167_149 vdd vss gf180mcu_fd_sc_mcu7t5v0__fill_2
XFILLER_91_1383 vdd vss gf180mcu_fd_sc_mcu7t5v0__fillcap_8
X_07366_ _01801_ _01802_ vdd vss gf180mcu_fd_sc_mcu7t5v0__clkbuf_1
XFILLER_182_108 vdd vss gf180mcu_fd_sc_mcu7t5v0__fillcap_64
XFILLER_176_661 vdd vss gf180mcu_fd_sc_mcu7t5v0__fillcap_8
X_09105_ _05731_ _01358_ _03328_ vdd vss gf180mcu_fd_sc_mcu7t5v0__nand2_1
X_06317_ _00766_ _00767_ _00768_ vdd vss gf180mcu_fd_sc_mcu7t5v0__and2_1
XFILLER_104_1457 vdd vss gf180mcu_fd_sc_mcu7t5v0__fillcap_64
X_07297_ _01732_ _01733_ vdd vss gf180mcu_fd_sc_mcu7t5v0__clkbuf_1
XFILLER_178_1525 vdd vss gf180mcu_fd_sc_mcu7t5v0__fill_1
XFILLER_175_171 vdd vss gf180mcu_fd_sc_mcu7t5v0__fill_2
XFILLER_148_396 vdd vss gf180mcu_fd_sc_mcu7t5v0__fill_1
XFILLER_87_1408 vdd vss gf180mcu_fd_sc_mcu7t5v0__fillcap_8
X_09036_ _03265_ as2650.r123_2\[0\]\[1\] _03259_ _03266_ vdd vss gf180mcu_fd_sc_mcu7t5v0__mux2_2
X_06248_ _00679_ _00574_ _00704_ _00705_ vdd vss gf180mcu_fd_sc_mcu7t5v0__nand3_1
XFILLER_164_889 vdd vss gf180mcu_fd_sc_mcu7t5v0__fillcap_32
XANTENNA__06812__A3 _01253_ vdd vss gf180mcu_fd_sc_mcu7t5v0__antenna
XFILLER_102_1170 vdd vss gf180mcu_fd_sc_mcu7t5v0__fill_1
XFILLER_117_761 vdd vss gf180mcu_fd_sc_mcu7t5v0__fill_2
XFILLER_11_1064 vdd vss gf180mcu_fd_sc_mcu7t5v0__fill_1
XFILLER_195_1861 vdd vss gf180mcu_fd_sc_mcu7t5v0__fill_2
XFILLER_156_1812 vdd vss gf180mcu_fd_sc_mcu7t5v0__fillcap_64
XFILLER_191_1703 vdd vss gf180mcu_fd_sc_mcu7t5v0__fill_1
XFILLER_137_1200 vdd vss gf180mcu_fd_sc_mcu7t5v0__fill_2
XFILLER_117_783 vdd vss gf180mcu_fd_sc_mcu7t5v0__fill_1
XFILLER_65_1706 vdd vss gf180mcu_fd_sc_mcu7t5v0__fillcap_64
XFILLER_163_399 vdd vss gf180mcu_fd_sc_mcu7t5v0__fill_2
XFILLER_137_1211 vdd vss gf180mcu_fd_sc_mcu7t5v0__fill_1
X_06179_ _00637_ _00638_ vdd vss gf180mcu_fd_sc_mcu7t5v0__clkbuf_1
XFILLER_172_1102 vdd vss gf180mcu_fd_sc_mcu7t5v0__fillcap_64
XFILLER_144_580 vdd vss gf180mcu_fd_sc_mcu7t5v0__fill_2
XFILLER_116_271 vdd vss gf180mcu_fd_sc_mcu7t5v0__fill_1
XFILLER_85_1154 vdd vss gf180mcu_fd_sc_mcu7t5v0__fill_2
XFILLER_116_282 vdd vss gf180mcu_fd_sc_mcu7t5v0__fillcap_4
XFILLER_137_1233 vdd vss gf180mcu_fd_sc_mcu7t5v0__fill_1
XFILLER_132_742 vdd vss gf180mcu_fd_sc_mcu7t5v0__fill_2
XANTENNA__06025__A1 net72 vdd vss gf180mcu_fd_sc_mcu7t5v0__antenna
XFILLER_81_1007 vdd vss gf180mcu_fd_sc_mcu7t5v0__fillcap_4
XANTENNA__07222__B1 _01658_ vdd vss gf180mcu_fd_sc_mcu7t5v0__antenna
XFILLER_137_1244 vdd vss gf180mcu_fd_sc_mcu7t5v0__fill_2
XFILLER_117_66 vdd vss gf180mcu_fd_sc_mcu7t5v0__fillcap_4
XFILLER_104_444 vdd vss gf180mcu_fd_sc_mcu7t5v0__fill_1
XANTENNA__08565__A3 _05793_ vdd vss gf180mcu_fd_sc_mcu7t5v0__antenna
XANTENNA__09762__A2 _03920_ vdd vss gf180mcu_fd_sc_mcu7t5v0__antenna
XFILLER_78_818 vdd vss gf180mcu_fd_sc_mcu7t5v0__fill_1
XFILLER_89_144 vdd vss gf180mcu_fd_sc_mcu7t5v0__fillcap_32
XANTENNA__07773__A1 _02122_ vdd vss gf180mcu_fd_sc_mcu7t5v0__antenna
XFILLER_132_786 vdd vss gf180mcu_fd_sc_mcu7t5v0__fill_1
XFILLER_104_488 vdd vss gf180mcu_fd_sc_mcu7t5v0__fill_1
XANTENNA__11812__CLK clknet_leaf_111_wb_clk_i vdd vss gf180mcu_fd_sc_mcu7t5v0__antenna
XFILLER_77_328 vdd vss gf180mcu_fd_sc_mcu7t5v0__fill_1
XFILLER_137_1299 vdd vss gf180mcu_fd_sc_mcu7t5v0__fillcap_8
X_09938_ _00717_ _04094_ _02890_ _04095_ vdd vss gf180mcu_fd_sc_mcu7t5v0__aoi21_1
XFILLER_104_499 vdd vss gf180mcu_fd_sc_mcu7t5v0__fillcap_16
XFILLER_58_520 vdd vss gf180mcu_fd_sc_mcu7t5v0__fill_2
XANTENNA__07293__I net48 vdd vss gf180mcu_fd_sc_mcu7t5v0__antenna
XFILLER_86_851 vdd vss gf180mcu_fd_sc_mcu7t5v0__fillcap_8
XFILLER_115_1564 vdd vss gf180mcu_fd_sc_mcu7t5v0__fillcap_64
XFILLER_189_1632 vdd vss gf180mcu_fd_sc_mcu7t5v0__fill_1
X_09869_ _01465_ _01457_ _04027_ vdd vss gf180mcu_fd_sc_mcu7t5v0__or2_1
XFILLER_100_650 vdd vss gf180mcu_fd_sc_mcu7t5v0__fill_1
XFILLER_58_564 vdd vss gf180mcu_fd_sc_mcu7t5v0__fill_1
XFILLER_86_873 vdd vss gf180mcu_fd_sc_mcu7t5v0__fill_2
XFILLER_92_309 vdd vss gf180mcu_fd_sc_mcu7t5v0__fillcap_8
XFILLER_133_54 vdd vss gf180mcu_fd_sc_mcu7t5v0__fill_2
XTAP_3202 vdd vss gf180mcu_fd_sc_mcu7t5v0__filltie
XFILLER_100_661 vdd vss gf180mcu_fd_sc_mcu7t5v0__fillcap_8
XFILLER_58_575 vdd vss gf180mcu_fd_sc_mcu7t5v0__fill_2
XTAP_3213 vdd vss gf180mcu_fd_sc_mcu7t5v0__filltie
XFILLER_58_586 vdd vss gf180mcu_fd_sc_mcu7t5v0__fill_2
XTAP_3224 vdd vss gf180mcu_fd_sc_mcu7t5v0__filltie
XFILLER_100_683 vdd vss gf180mcu_fd_sc_mcu7t5v0__fillcap_8
X_11900_ _00269_ clknet_leaf_73_wb_clk_i as2650.stack\[6\]\[2\] vdd vss gf180mcu_fd_sc_mcu7t5v0__dffq_1
XTAP_3235 vdd vss gf180mcu_fd_sc_mcu7t5v0__filltie
XFILLER_58_597 vdd vss gf180mcu_fd_sc_mcu7t5v0__fill_1
XFILLER_45_225 vdd vss gf180mcu_fd_sc_mcu7t5v0__fill_2
XFILLER_73_534 vdd vss gf180mcu_fd_sc_mcu7t5v0__fillcap_16
XTAP_2501 vdd vss gf180mcu_fd_sc_mcu7t5v0__filltie
XTAP_3246 vdd vss gf180mcu_fd_sc_mcu7t5v0__filltie
XFILLER_46_759 vdd vss gf180mcu_fd_sc_mcu7t5v0__fill_2
XANTENNA_output37_I net37 vdd vss gf180mcu_fd_sc_mcu7t5v0__antenna
XANTENNA__11962__CLK clknet_leaf_20_wb_clk_i vdd vss gf180mcu_fd_sc_mcu7t5v0__antenna
XTAP_3257 vdd vss gf180mcu_fd_sc_mcu7t5v0__filltie
XTAP_2512 vdd vss gf180mcu_fd_sc_mcu7t5v0__filltie
XTAP_3268 vdd vss gf180mcu_fd_sc_mcu7t5v0__filltie
XTAP_2523 vdd vss gf180mcu_fd_sc_mcu7t5v0__filltie
X_11831_ _00214_ clknet_leaf_27_wb_clk_i as2650.r123_2\[1\]\[3\] vdd vss gf180mcu_fd_sc_mcu7t5v0__dffq_1
XTAP_3279 vdd vss gf180mcu_fd_sc_mcu7t5v0__filltie
XFILLER_61_707 vdd vss gf180mcu_fd_sc_mcu7t5v0__fill_2
XFILLER_73_567 vdd vss gf180mcu_fd_sc_mcu7t5v0__fill_1
XTAP_2534 vdd vss gf180mcu_fd_sc_mcu7t5v0__filltie
XFILLER_33_409 vdd vss gf180mcu_fd_sc_mcu7t5v0__fill_1
XFILLER_45_269 vdd vss gf180mcu_fd_sc_mcu7t5v0__fill_1
XTAP_1800 vdd vss gf180mcu_fd_sc_mcu7t5v0__filltie
XTAP_2545 vdd vss gf180mcu_fd_sc_mcu7t5v0__filltie
XFILLER_165_2 vdd vss gf180mcu_fd_sc_mcu7t5v0__fillcap_16
XTAP_1811 vdd vss gf180mcu_fd_sc_mcu7t5v0__filltie
XTAP_2556 vdd vss gf180mcu_fd_sc_mcu7t5v0__filltie
XANTENNA__08338__B _02640_ vdd vss gf180mcu_fd_sc_mcu7t5v0__antenna
XTAP_1822 vdd vss gf180mcu_fd_sc_mcu7t5v0__filltie
XANTENNA_clkbuf_leaf_104_wb_clk_i_I clknet_4_3_0_wb_clk_i vdd vss gf180mcu_fd_sc_mcu7t5v0__antenna
XTAP_2567 vdd vss gf180mcu_fd_sc_mcu7t5v0__filltie
XANTENNA__10587__C _04643_ vdd vss gf180mcu_fd_sc_mcu7t5v0__antenna
XFILLER_96_1294 vdd vss gf180mcu_fd_sc_mcu7t5v0__fillcap_4
XFILLER_42_932 vdd vss gf180mcu_fd_sc_mcu7t5v0__fillcap_8
XTAP_1833 vdd vss gf180mcu_fd_sc_mcu7t5v0__filltie
XTAP_2578 vdd vss gf180mcu_fd_sc_mcu7t5v0__filltie
XFILLER_92_1125 vdd vss gf180mcu_fd_sc_mcu7t5v0__fillcap_8
X_11762_ _00145_ clknet_leaf_82_wb_clk_i as2650.stack\[5\]\[11\] vdd vss gf180mcu_fd_sc_mcu7t5v0__dffq_1
XTAP_1844 vdd vss gf180mcu_fd_sc_mcu7t5v0__filltie
XFILLER_60_239 vdd vss gf180mcu_fd_sc_mcu7t5v0__fill_2
XTAP_2589 vdd vss gf180mcu_fd_sc_mcu7t5v0__filltie
XTAP_1855 vdd vss gf180mcu_fd_sc_mcu7t5v0__filltie
XFILLER_159_617 vdd vss gf180mcu_fd_sc_mcu7t5v0__fill_2
XTAP_1866 vdd vss gf180mcu_fd_sc_mcu7t5v0__filltie
XFILLER_109_1346 vdd vss gf180mcu_fd_sc_mcu7t5v0__fill_2
XFILLER_92_1158 vdd vss gf180mcu_fd_sc_mcu7t5v0__fill_2
XFILLER_13_144 vdd vss gf180mcu_fd_sc_mcu7t5v0__fillcap_64
XTAP_1877 vdd vss gf180mcu_fd_sc_mcu7t5v0__filltie
X_10713_ _01737_ _04822_ vdd vss gf180mcu_fd_sc_mcu7t5v0__clkbuf_1
XANTENNA__10832__A1 _03639_ vdd vss gf180mcu_fd_sc_mcu7t5v0__antenna
XFILLER_158_116 vdd vss gf180mcu_fd_sc_mcu7t5v0__fill_2
XTAP_1888 vdd vss gf180mcu_fd_sc_mcu7t5v0__filltie
X_11693_ _00076_ clknet_leaf_119_wb_clk_i as2650.stack\[11\]\[9\] vdd vss gf180mcu_fd_sc_mcu7t5v0__dffq_1
XTAP_1899 vdd vss gf180mcu_fd_sc_mcu7t5v0__filltie
XANTENNA__09948__I _00957_ vdd vss gf180mcu_fd_sc_mcu7t5v0__antenna
XFILLER_74_1592 vdd vss gf180mcu_fd_sc_mcu7t5v0__fillcap_4
XFILLER_158_149 vdd vss gf180mcu_fd_sc_mcu7t5v0__fill_2
XFILLER_9_137 vdd vss gf180mcu_fd_sc_mcu7t5v0__fillcap_4
X_10644_ _03921_ _03964_ _04754_ vdd vss gf180mcu_fd_sc_mcu7t5v0__nand2_1
XFILLER_167_661 vdd vss gf180mcu_fd_sc_mcu7t5v0__fillcap_32
XFILLER_155_801 vdd vss gf180mcu_fd_sc_mcu7t5v0__fill_2
XFILLER_6_811 vdd vss gf180mcu_fd_sc_mcu7t5v0__fillcap_4
X_10575_ _02789_ _04685_ _04686_ _04687_ vdd vss gf180mcu_fd_sc_mcu7t5v0__nand3_1
XFILLER_13_1841 vdd vss gf180mcu_fd_sc_mcu7t5v0__fillcap_4
XANTENNA__09450__A1 as2650.stack\[5\]\[2\] vdd vss gf180mcu_fd_sc_mcu7t5v0__antenna
XANTENNA__08253__A2 _00834_ vdd vss gf180mcu_fd_sc_mcu7t5v0__antenna
XFILLER_155_867 vdd vss gf180mcu_fd_sc_mcu7t5v0__fill_2
XANTENNA__06372__I _00817_ vdd vss gf180mcu_fd_sc_mcu7t5v0__antenna
XANTENNA__07461__B1 _01863_ vdd vss gf180mcu_fd_sc_mcu7t5v0__antenna
XFILLER_115_709 vdd vss gf180mcu_fd_sc_mcu7t5v0__fill_1
XFILLER_181_141 vdd vss gf180mcu_fd_sc_mcu7t5v0__fill_1
XFILLER_108_750 vdd vss gf180mcu_fd_sc_mcu7t5v0__fill_2
XANTENNA__07461__C2 as2650.stack\[1\]\[11\] vdd vss gf180mcu_fd_sc_mcu7t5v0__antenna
XFILLER_170_815 vdd vss gf180mcu_fd_sc_mcu7t5v0__fill_1
XFILLER_142_506 vdd vss gf180mcu_fd_sc_mcu7t5v0__fill_2
XFILLER_138_1008 vdd vss gf180mcu_fd_sc_mcu7t5v0__fill_1
XFILLER_5_354 vdd vss gf180mcu_fd_sc_mcu7t5v0__fill_1
XFILLER_108_772 vdd vss gf180mcu_fd_sc_mcu7t5v0__fillcap_4
XFILLER_154_388 vdd vss gf180mcu_fd_sc_mcu7t5v0__fill_2
XFILLER_142_528 vdd vss gf180mcu_fd_sc_mcu7t5v0__fill_1
XFILLER_48_1915 vdd vss gf180mcu_fd_sc_mcu7t5v0__fillcap_16
XANTENNA__08005__A2 _02357_ vdd vss gf180mcu_fd_sc_mcu7t5v0__antenna
XFILLER_48_1937 vdd vss gf180mcu_fd_sc_mcu7t5v0__fill_1
XANTENNA__06016__A1 _05678_ vdd vss gf180mcu_fd_sc_mcu7t5v0__antenna
XFILLER_123_753 vdd vss gf180mcu_fd_sc_mcu7t5v0__fillcap_4
XFILLER_155_1344 vdd vss gf180mcu_fd_sc_mcu7t5v0__fillcap_4
XFILLER_9_1419 vdd vss gf180mcu_fd_sc_mcu7t5v0__fill_1
XFILLER_170_1809 vdd vss gf180mcu_fd_sc_mcu7t5v0__fill_1
XFILLER_116_1306 vdd vss gf180mcu_fd_sc_mcu7t5v0__fillcap_4
XFILLER_116_1317 vdd vss gf180mcu_fd_sc_mcu7t5v0__fill_1
XFILLER_96_615 vdd vss gf180mcu_fd_sc_mcu7t5v0__fillcap_4
XANTENNA__07764__A1 _02177_ vdd vss gf180mcu_fd_sc_mcu7t5v0__antenna
XFILLER_110_414 vdd vss gf180mcu_fd_sc_mcu7t5v0__fill_2
XFILLER_1_560 vdd vss gf180mcu_fd_sc_mcu7t5v0__fillcap_8
X_11127_ _01811_ _05225_ vdd vss gf180mcu_fd_sc_mcu7t5v0__clkbuf_1
XFILLER_122_296 vdd vss gf180mcu_fd_sc_mcu7t5v0__fill_2
XFILLER_42_1525 vdd vss gf180mcu_fd_sc_mcu7t5v0__fill_1
XFILLER_77_840 vdd vss gf180mcu_fd_sc_mcu7t5v0__fillcap_8
XANTENNA__09505__A2 _03669_ vdd vss gf180mcu_fd_sc_mcu7t5v0__antenna
X_11058_ _01942_ _05157_ vdd vss gf180mcu_fd_sc_mcu7t5v0__clkbuf_1
XFILLER_67_70 vdd vss gf180mcu_fd_sc_mcu7t5v0__fill_1
XTAP_5160 vdd vss gf180mcu_fd_sc_mcu7t5v0__filltie
XTAP_5171 vdd vss gf180mcu_fd_sc_mcu7t5v0__filltie
XANTENNA__06319__A2 _00646_ vdd vss gf180mcu_fd_sc_mcu7t5v0__antenna
XFILLER_114_1052 vdd vss gf180mcu_fd_sc_mcu7t5v0__fillcap_32
XANTENNA__07516__A1 as2650.stack\[9\]\[13\] vdd vss gf180mcu_fd_sc_mcu7t5v0__antenna
XTAP_5182 vdd vss gf180mcu_fd_sc_mcu7t5v0__filltie
XANTENNA__11312__A2 _05268_ vdd vss gf180mcu_fd_sc_mcu7t5v0__antenna
XTAP_5193 vdd vss gf180mcu_fd_sc_mcu7t5v0__filltie
X_10009_ _02893_ _04165_ vdd vss gf180mcu_fd_sc_mcu7t5v0__clkbuf_1
XFILLER_49_586 vdd vss gf180mcu_fd_sc_mcu7t5v0__fillcap_4
XFILLER_92_821 vdd vss gf180mcu_fd_sc_mcu7t5v0__fillcap_4
XFILLER_20_1812 vdd vss gf180mcu_fd_sc_mcu7t5v0__fillcap_64
XFILLER_64_523 vdd vss gf180mcu_fd_sc_mcu7t5v0__fillcap_8
XTAP_4470 vdd vss gf180mcu_fd_sc_mcu7t5v0__filltie
XFILLER_37_748 vdd vss gf180mcu_fd_sc_mcu7t5v0__fill_2