* NGSPICE file created from wrapped_as2650.ext - technology: gf180mcuC

* Black-box entry subcircuit for gf180mcu_fd_sc_mcu7t5v0__fill_2 abstract view
.subckt gf180mcu_fd_sc_mcu7t5v0__fill_2 VDD VSS
.ends

* Black-box entry subcircuit for gf180mcu_fd_sc_mcu7t5v0__fillcap_4 abstract view
.subckt gf180mcu_fd_sc_mcu7t5v0__fillcap_4 VDD VSS
.ends

* Black-box entry subcircuit for gf180mcu_fd_sc_mcu7t5v0__fill_1 abstract view
.subckt gf180mcu_fd_sc_mcu7t5v0__fill_1 VDD VSS
.ends

* Black-box entry subcircuit for gf180mcu_fd_sc_mcu7t5v0__antenna abstract view
.subckt gf180mcu_fd_sc_mcu7t5v0__antenna I VDD VSS
.ends

* Black-box entry subcircuit for gf180mcu_fd_sc_mcu7t5v0__fillcap_64 abstract view
.subckt gf180mcu_fd_sc_mcu7t5v0__fillcap_64 VDD VSS
.ends

* Black-box entry subcircuit for gf180mcu_fd_sc_mcu7t5v0__aoi21_1 abstract view
.subckt gf180mcu_fd_sc_mcu7t5v0__aoi21_1 A1 A2 B ZN VDD VSS
.ends

* Black-box entry subcircuit for gf180mcu_fd_sc_mcu7t5v0__fillcap_32 abstract view
.subckt gf180mcu_fd_sc_mcu7t5v0__fillcap_32 VDD VSS
.ends

* Black-box entry subcircuit for gf180mcu_fd_sc_mcu7t5v0__nor2_1 abstract view
.subckt gf180mcu_fd_sc_mcu7t5v0__nor2_1 A1 A2 ZN VDD VSS
.ends

* Black-box entry subcircuit for gf180mcu_fd_sc_mcu7t5v0__fillcap_8 abstract view
.subckt gf180mcu_fd_sc_mcu7t5v0__fillcap_8 VDD VSS
.ends

* Black-box entry subcircuit for gf180mcu_fd_sc_mcu7t5v0__clkbuf_1 abstract view
.subckt gf180mcu_fd_sc_mcu7t5v0__clkbuf_1 I Z VDD VSS
.ends

* Black-box entry subcircuit for gf180mcu_fd_sc_mcu7t5v0__mux2_2 abstract view
.subckt gf180mcu_fd_sc_mcu7t5v0__mux2_2 I0 I1 S Z VDD VSS
.ends

* Black-box entry subcircuit for gf180mcu_fd_sc_mcu7t5v0__fillcap_16 abstract view
.subckt gf180mcu_fd_sc_mcu7t5v0__fillcap_16 VDD VSS
.ends

* Black-box entry subcircuit for gf180mcu_fd_sc_mcu7t5v0__nand4_2 abstract view
.subckt gf180mcu_fd_sc_mcu7t5v0__nand4_2 A1 A2 A3 A4 ZN VDD VSS
.ends

* Black-box entry subcircuit for gf180mcu_fd_sc_mcu7t5v0__nand3_1 abstract view
.subckt gf180mcu_fd_sc_mcu7t5v0__nand3_1 A1 A2 A3 ZN VDD VSS
.ends

* Black-box entry subcircuit for gf180mcu_fd_sc_mcu7t5v0__oai211_1 abstract view
.subckt gf180mcu_fd_sc_mcu7t5v0__oai211_1 A1 A2 B C ZN VDD VSS
.ends

* Black-box entry subcircuit for gf180mcu_fd_sc_mcu7t5v0__oai21_1 abstract view
.subckt gf180mcu_fd_sc_mcu7t5v0__oai21_1 A1 A2 B ZN VDD VSS
.ends

* Black-box entry subcircuit for gf180mcu_fd_sc_mcu7t5v0__nor4_4 abstract view
.subckt gf180mcu_fd_sc_mcu7t5v0__nor4_4 A1 A2 A3 A4 ZN VDD VSS
.ends

* Black-box entry subcircuit for gf180mcu_fd_sc_mcu7t5v0__buf_1 abstract view
.subckt gf180mcu_fd_sc_mcu7t5v0__buf_1 I Z VDD VSS
.ends

* Black-box entry subcircuit for gf180mcu_fd_sc_mcu7t5v0__nand2_1 abstract view
.subckt gf180mcu_fd_sc_mcu7t5v0__nand2_1 A1 A2 ZN VDD VSS
.ends

* Black-box entry subcircuit for gf180mcu_fd_sc_mcu7t5v0__filltie abstract view
.subckt gf180mcu_fd_sc_mcu7t5v0__filltie VDD VSS
.ends

* Black-box entry subcircuit for gf180mcu_fd_sc_mcu7t5v0__clkbuf_16 abstract view
.subckt gf180mcu_fd_sc_mcu7t5v0__clkbuf_16 I Z VDD VSS
.ends

* Black-box entry subcircuit for gf180mcu_fd_sc_mcu7t5v0__xor2_1 abstract view
.subckt gf180mcu_fd_sc_mcu7t5v0__xor2_1 A1 A2 Z VDD VSS
.ends

* Black-box entry subcircuit for gf180mcu_fd_sc_mcu7t5v0__xor3_1 abstract view
.subckt gf180mcu_fd_sc_mcu7t5v0__xor3_1 A1 A2 A3 Z VDD VSS
.ends

* Black-box entry subcircuit for gf180mcu_fd_sc_mcu7t5v0__dffq_1 abstract view
.subckt gf180mcu_fd_sc_mcu7t5v0__dffq_1 D CLK Q VDD VSS
.ends

* Black-box entry subcircuit for gf180mcu_fd_sc_mcu7t5v0__xnor2_1 abstract view
.subckt gf180mcu_fd_sc_mcu7t5v0__xnor2_1 A1 A2 ZN VDD VSS
.ends

* Black-box entry subcircuit for gf180mcu_fd_sc_mcu7t5v0__and2_1 abstract view
.subckt gf180mcu_fd_sc_mcu7t5v0__and2_1 A1 A2 Z VDD VSS
.ends

* Black-box entry subcircuit for gf180mcu_fd_sc_mcu7t5v0__aoi22_1 abstract view
.subckt gf180mcu_fd_sc_mcu7t5v0__aoi22_1 A1 A2 B1 B2 ZN VDD VSS
.ends

* Black-box entry subcircuit for gf180mcu_fd_sc_mcu7t5v0__nor3_1 abstract view
.subckt gf180mcu_fd_sc_mcu7t5v0__nor3_1 A1 A2 A3 ZN VDD VSS
.ends

* Black-box entry subcircuit for gf180mcu_fd_sc_mcu7t5v0__aoi211_1 abstract view
.subckt gf180mcu_fd_sc_mcu7t5v0__aoi211_1 A1 A2 B C ZN VDD VSS
.ends

* Black-box entry subcircuit for gf180mcu_fd_sc_mcu7t5v0__oai21_2 abstract view
.subckt gf180mcu_fd_sc_mcu7t5v0__oai21_2 A1 A2 B ZN VDD VSS
.ends

* Black-box entry subcircuit for gf180mcu_fd_sc_mcu7t5v0__clkinv_1 abstract view
.subckt gf180mcu_fd_sc_mcu7t5v0__clkinv_1 I ZN VDD VSS
.ends

* Black-box entry subcircuit for gf180mcu_fd_sc_mcu7t5v0__oai22_1 abstract view
.subckt gf180mcu_fd_sc_mcu7t5v0__oai22_1 A1 A2 B1 B2 ZN VDD VSS
.ends

* Black-box entry subcircuit for gf180mcu_fd_sc_mcu7t5v0__nor4_1 abstract view
.subckt gf180mcu_fd_sc_mcu7t5v0__nor4_1 A1 A2 A3 A4 ZN VDD VSS
.ends

* Black-box entry subcircuit for gf180mcu_fd_sc_mcu7t5v0__nand4_1 abstract view
.subckt gf180mcu_fd_sc_mcu7t5v0__nand4_1 A1 A2 A3 A4 ZN VDD VSS
.ends

* Black-box entry subcircuit for gf180mcu_fd_sc_mcu7t5v0__clkbuf_2 abstract view
.subckt gf180mcu_fd_sc_mcu7t5v0__clkbuf_2 I Z VDD VSS
.ends

* Black-box entry subcircuit for gf180mcu_fd_sc_mcu7t5v0__aoi211_4 abstract view
.subckt gf180mcu_fd_sc_mcu7t5v0__aoi211_4 A1 A2 B C ZN VDD VSS
.ends

* Black-box entry subcircuit for gf180mcu_fd_sc_mcu7t5v0__clkbuf_3 abstract view
.subckt gf180mcu_fd_sc_mcu7t5v0__clkbuf_3 I Z VDD VSS
.ends

* Black-box entry subcircuit for gf180mcu_fd_sc_mcu7t5v0__endcap abstract view
.subckt gf180mcu_fd_sc_mcu7t5v0__endcap VDD VSS
.ends

* Black-box entry subcircuit for gf180mcu_fd_sc_mcu7t5v0__and4_1 abstract view
.subckt gf180mcu_fd_sc_mcu7t5v0__and4_1 A1 A2 A3 A4 Z VDD VSS
.ends

* Black-box entry subcircuit for gf180mcu_fd_sc_mcu7t5v0__oai31_1 abstract view
.subckt gf180mcu_fd_sc_mcu7t5v0__oai31_1 A1 A2 A3 B ZN VDD VSS
.ends

* Black-box entry subcircuit for gf180mcu_fd_sc_mcu7t5v0__nor2_2 abstract view
.subckt gf180mcu_fd_sc_mcu7t5v0__nor2_2 A1 A2 ZN VDD VSS
.ends

* Black-box entry subcircuit for gf180mcu_fd_sc_mcu7t5v0__aoi21_2 abstract view
.subckt gf180mcu_fd_sc_mcu7t5v0__aoi21_2 A1 A2 B ZN VDD VSS
.ends

* Black-box entry subcircuit for gf180mcu_fd_sc_mcu7t5v0__oai32_1 abstract view
.subckt gf180mcu_fd_sc_mcu7t5v0__oai32_1 A1 A2 A3 B1 B2 ZN VDD VSS
.ends

* Black-box entry subcircuit for gf180mcu_fd_sc_mcu7t5v0__aoi221_1 abstract view
.subckt gf180mcu_fd_sc_mcu7t5v0__aoi221_1 A1 A2 B1 B2 C ZN VDD VSS
.ends

* Black-box entry subcircuit for gf180mcu_fd_sc_mcu7t5v0__mux4_1 abstract view
.subckt gf180mcu_fd_sc_mcu7t5v0__mux4_1 I0 I1 I2 I3 S0 S1 Z VDD VSS
.ends

* Black-box entry subcircuit for gf180mcu_fd_sc_mcu7t5v0__oai211_2 abstract view
.subckt gf180mcu_fd_sc_mcu7t5v0__oai211_2 A1 A2 B C ZN VDD VSS
.ends

* Black-box entry subcircuit for gf180mcu_fd_sc_mcu7t5v0__nand3_2 abstract view
.subckt gf180mcu_fd_sc_mcu7t5v0__nand3_2 A1 A2 A3 ZN VDD VSS
.ends

* Black-box entry subcircuit for gf180mcu_fd_sc_mcu7t5v0__buf_2 abstract view
.subckt gf180mcu_fd_sc_mcu7t5v0__buf_2 I Z VDD VSS
.ends

* Black-box entry subcircuit for gf180mcu_fd_sc_mcu7t5v0__xnor3_1 abstract view
.subckt gf180mcu_fd_sc_mcu7t5v0__xnor3_1 A1 A2 A3 ZN VDD VSS
.ends

* Black-box entry subcircuit for gf180mcu_fd_sc_mcu7t5v0__oai221_1 abstract view
.subckt gf180mcu_fd_sc_mcu7t5v0__oai221_1 A1 A2 B1 B2 C ZN VDD VSS
.ends

* Black-box entry subcircuit for gf180mcu_fd_sc_mcu7t5v0__nor3_2 abstract view
.subckt gf180mcu_fd_sc_mcu7t5v0__nor3_2 A1 A2 A3 ZN VDD VSS
.ends

* Black-box entry subcircuit for gf180mcu_fd_sc_mcu7t5v0__and3_1 abstract view
.subckt gf180mcu_fd_sc_mcu7t5v0__and3_1 A1 A2 A3 Z VDD VSS
.ends

* Black-box entry subcircuit for gf180mcu_fd_sc_mcu7t5v0__or2_1 abstract view
.subckt gf180mcu_fd_sc_mcu7t5v0__or2_1 A1 A2 Z VDD VSS
.ends

* Black-box entry subcircuit for gf180mcu_fd_sc_mcu7t5v0__aoi211_2 abstract view
.subckt gf180mcu_fd_sc_mcu7t5v0__aoi211_2 A1 A2 B C ZN VDD VSS
.ends

* Black-box entry subcircuit for gf180mcu_fd_sc_mcu7t5v0__oai22_2 abstract view
.subckt gf180mcu_fd_sc_mcu7t5v0__oai22_2 A1 A2 B1 B2 ZN VDD VSS
.ends

* Black-box entry subcircuit for gf180mcu_fd_sc_mcu7t5v0__nand2_2 abstract view
.subckt gf180mcu_fd_sc_mcu7t5v0__nand2_2 A1 A2 ZN VDD VSS
.ends

* Black-box entry subcircuit for gf180mcu_fd_sc_mcu7t5v0__inv_1 abstract view
.subckt gf180mcu_fd_sc_mcu7t5v0__inv_1 I ZN VDD VSS
.ends

* Black-box entry subcircuit for gf180mcu_fd_sc_mcu7t5v0__oai221_2 abstract view
.subckt gf180mcu_fd_sc_mcu7t5v0__oai221_2 A1 A2 B1 B2 C ZN VDD VSS
.ends

* Black-box entry subcircuit for gf180mcu_fd_sc_mcu7t5v0__aoi221_2 abstract view
.subckt gf180mcu_fd_sc_mcu7t5v0__aoi221_2 A1 A2 B1 B2 C ZN VDD VSS
.ends

* Black-box entry subcircuit for gf180mcu_fd_sc_mcu7t5v0__nor4_2 abstract view
.subckt gf180mcu_fd_sc_mcu7t5v0__nor4_2 A1 A2 A3 A4 ZN VDD VSS
.ends

* Black-box entry subcircuit for gf180mcu_fd_sc_mcu7t5v0__or3_1 abstract view
.subckt gf180mcu_fd_sc_mcu7t5v0__or3_1 A1 A2 A3 Z VDD VSS
.ends

* Black-box entry subcircuit for gf180mcu_fd_sc_mcu7t5v0__aoi22_2 abstract view
.subckt gf180mcu_fd_sc_mcu7t5v0__aoi22_2 A1 A2 B1 B2 ZN VDD VSS
.ends

* Black-box entry subcircuit for gf180mcu_fd_sc_mcu7t5v0__clkinv_2 abstract view
.subckt gf180mcu_fd_sc_mcu7t5v0__clkinv_2 I ZN VDD VSS
.ends

* Black-box entry subcircuit for gf180mcu_fd_sc_mcu7t5v0__tieh abstract view
.subckt gf180mcu_fd_sc_mcu7t5v0__tieh Z VDD VSS
.ends

* Black-box entry subcircuit for gf180mcu_fd_sc_mcu7t5v0__or4_1 abstract view
.subckt gf180mcu_fd_sc_mcu7t5v0__or4_1 A1 A2 A3 A4 Z VDD VSS
.ends

* Black-box entry subcircuit for gf180mcu_fd_sc_mcu7t5v0__tiel abstract view
.subckt gf180mcu_fd_sc_mcu7t5v0__tiel ZN VDD VSS
.ends

* Black-box entry subcircuit for gf180mcu_fd_sc_mcu7t5v0__dlyc_1 abstract view
.subckt gf180mcu_fd_sc_mcu7t5v0__dlyc_1 I Z VDD VSS
.ends

* Black-box entry subcircuit for gf180mcu_fd_sc_mcu7t5v0__oai31_2 abstract view
.subckt gf180mcu_fd_sc_mcu7t5v0__oai31_2 A1 A2 A3 B ZN VDD VSS
.ends

* Black-box entry subcircuit for gf180mcu_fd_sc_mcu7t5v0__aoi221_4 abstract view
.subckt gf180mcu_fd_sc_mcu7t5v0__aoi221_4 A1 A2 B1 B2 C ZN VDD VSS
.ends

* Black-box entry subcircuit for gf180mcu_fd_sc_mcu7t5v0__oai32_4 abstract view
.subckt gf180mcu_fd_sc_mcu7t5v0__oai32_4 A1 A2 A3 B1 B2 ZN VDD VSS
.ends

* Black-box entry subcircuit for gf180mcu_fd_sc_mcu7t5v0__dlyb_1 abstract view
.subckt gf180mcu_fd_sc_mcu7t5v0__dlyb_1 I Z VDD VSS
.ends

* Black-box entry subcircuit for gf180mcu_fd_sc_mcu7t5v0__aoi222_4 abstract view
.subckt gf180mcu_fd_sc_mcu7t5v0__aoi222_4 A1 A2 B1 B2 C1 C2 ZN VDD VSS
.ends

* Black-box entry subcircuit for gf180mcu_fd_sc_mcu7t5v0__nand4_4 abstract view
.subckt gf180mcu_fd_sc_mcu7t5v0__nand4_4 A1 A2 A3 A4 ZN VDD VSS
.ends

* Black-box entry subcircuit for gf180mcu_fd_sc_mcu7t5v0__mux4_2 abstract view
.subckt gf180mcu_fd_sc_mcu7t5v0__mux4_2 I0 I1 I2 I3 S0 S1 Z VDD VSS
.ends

* Black-box entry subcircuit for gf180mcu_fd_sc_mcu7t5v0__aoi222_1 abstract view
.subckt gf180mcu_fd_sc_mcu7t5v0__aoi222_1 A1 A2 B1 B2 C1 C2 ZN VDD VSS
.ends

* Black-box entry subcircuit for gf180mcu_fd_sc_mcu7t5v0__xor2_2 abstract view
.subckt gf180mcu_fd_sc_mcu7t5v0__xor2_2 A1 A2 Z VDD VSS
.ends

* Black-box entry subcircuit for gf180mcu_fd_sc_mcu7t5v0__oai32_2 abstract view
.subckt gf180mcu_fd_sc_mcu7t5v0__oai32_2 A1 A2 A3 B1 B2 ZN VDD VSS
.ends

* Black-box entry subcircuit for gf180mcu_fd_sc_mcu7t5v0__dlyd_1 abstract view
.subckt gf180mcu_fd_sc_mcu7t5v0__dlyd_1 I Z VDD VSS
.ends

* Black-box entry subcircuit for gf180mcu_fd_sc_mcu7t5v0__dffq_2 abstract view
.subckt gf180mcu_fd_sc_mcu7t5v0__dffq_2 D CLK Q VDD VSS
.ends

* Black-box entry subcircuit for gf180mcu_fd_sc_mcu7t5v0__and2_2 abstract view
.subckt gf180mcu_fd_sc_mcu7t5v0__and2_2 A1 A2 Z VDD VSS
.ends

* Black-box entry subcircuit for gf180mcu_fd_sc_mcu7t5v0__aoi22_4 abstract view
.subckt gf180mcu_fd_sc_mcu7t5v0__aoi22_4 A1 A2 B1 B2 ZN VDD VSS
.ends

* Black-box entry subcircuit for gf180mcu_fd_sc_mcu7t5v0__nor3_4 abstract view
.subckt gf180mcu_fd_sc_mcu7t5v0__nor3_4 A1 A2 A3 ZN VDD VSS
.ends

* Black-box entry subcircuit for gf180mcu_fd_sc_mcu7t5v0__or4_2 abstract view
.subckt gf180mcu_fd_sc_mcu7t5v0__or4_2 A1 A2 A3 A4 Z VDD VSS
.ends

* Black-box entry subcircuit for gf180mcu_fd_sc_mcu7t5v0__oai221_4 abstract view
.subckt gf180mcu_fd_sc_mcu7t5v0__oai221_4 A1 A2 B1 B2 C ZN VDD VSS
.ends

* Black-box entry subcircuit for gf180mcu_fd_sc_mcu7t5v0__aoi21_4 abstract view
.subckt gf180mcu_fd_sc_mcu7t5v0__aoi21_4 A1 A2 B ZN VDD VSS
.ends

* Black-box entry subcircuit for gf180mcu_fd_sc_mcu7t5v0__oai21_4 abstract view
.subckt gf180mcu_fd_sc_mcu7t5v0__oai21_4 A1 A2 B ZN VDD VSS
.ends

.subckt wrapped_as2650 io_in[0] io_in[10] io_in[11] io_in[12] io_in[13] io_in[14]
+ io_in[15] io_in[16] io_in[17] io_in[18] io_in[19] io_in[1] io_in[20] io_in[21] io_in[22]
+ io_in[23] io_in[24] io_in[25] io_in[26] io_in[27] io_in[28] io_in[29] io_in[2] io_in[30]
+ io_in[31] io_in[32] io_in[33] io_in[34] io_in[35] io_in[36] io_in[37] io_in[3] io_in[4]
+ io_in[5] io_in[6] io_in[7] io_in[8] io_in[9] io_oeb[0] io_oeb[10] io_oeb[11] io_oeb[12]
+ io_oeb[13] io_oeb[14] io_oeb[15] io_oeb[16] io_oeb[17] io_oeb[18] io_oeb[19] io_oeb[1]
+ io_oeb[20] io_oeb[21] io_oeb[22] io_oeb[23] io_oeb[24] io_oeb[25] io_oeb[26] io_oeb[27]
+ io_oeb[28] io_oeb[29] io_oeb[2] io_oeb[30] io_oeb[31] io_oeb[32] io_oeb[33] io_oeb[34]
+ io_oeb[35] io_oeb[36] io_oeb[37] io_oeb[3] io_oeb[4] io_oeb[5] io_oeb[6] io_oeb[7]
+ io_oeb[8] io_oeb[9] io_out[0] io_out[10] io_out[11] io_out[12] io_out[13] io_out[14]
+ io_out[15] io_out[16] io_out[17] io_out[18] io_out[19] io_out[1] io_out[20] io_out[21]
+ io_out[22] io_out[23] io_out[24] io_out[25] io_out[26] io_out[27] io_out[28] io_out[29]
+ io_out[2] io_out[30] io_out[31] io_out[32] io_out[33] io_out[34] io_out[35] io_out[36]
+ io_out[37] io_out[3] io_out[4] io_out[5] io_out[6] io_out[7] io_out[8] io_out[9]
+ vdd vss wb_clk_i
XFILLER_39_222 vdd vss gf180mcu_fd_sc_mcu7t5v0__fill_2
XFILLER_67_531 vdd vss gf180mcu_fd_sc_mcu7t5v0__fillcap_4
XFILLER_95_851 vdd vss gf180mcu_fd_sc_mcu7t5v0__fill_1
XFILLER_67_553 vdd vss gf180mcu_fd_sc_mcu7t5v0__fillcap_4
XFILLER_95_862 vdd vss gf180mcu_fd_sc_mcu7t5v0__fill_2
XFILLER_41_1249 vdd vss gf180mcu_fd_sc_mcu7t5v0__fill_2
XFILLER_39_255 vdd vss gf180mcu_fd_sc_mcu7t5v0__fill_1
XANTENNA__7957__A2 _3128_ vdd vss gf180mcu_fd_sc_mcu7t5v0__antenna
XFILLER_27_428 vdd vss gf180mcu_fd_sc_mcu7t5v0__fillcap_64
X_7963_ _4444_ _3126_ _3134_ _3135_ vdd vss gf180mcu_fd_sc_mcu7t5v0__aoi21_1
XANTENNA__5968__A1 _1254_ vdd vss gf180mcu_fd_sc_mcu7t5v0__antenna
XFILLER_82_534 vdd vss gf180mcu_fd_sc_mcu7t5v0__fillcap_32
XFILLER_54_247 vdd vss gf180mcu_fd_sc_mcu7t5v0__fill_1
X_6914_ _0405_ _2128_ _2129_ vdd vss gf180mcu_fd_sc_mcu7t5v0__nor2_1
XANTENNA__6425__I _1454_ vdd vss gf180mcu_fd_sc_mcu7t5v0__antenna
X_7894_ _2971_ _2951_ _2284_ _3071_ vdd vss gf180mcu_fd_sc_mcu7t5v0__aoi21_1
XFILLER_82_589 vdd vss gf180mcu_fd_sc_mcu7t5v0__fillcap_8
XANTENNA__7709__A2 _2897_ vdd vss gf180mcu_fd_sc_mcu7t5v0__antenna
XANTENNA__8906__A1 _3975_ vdd vss gf180mcu_fd_sc_mcu7t5v0__antenna
XANTENNA__7965__B _3118_ vdd vss gf180mcu_fd_sc_mcu7t5v0__antenna
XFILLER_23_634 vdd vss gf180mcu_fd_sc_mcu7t5v0__fillcap_4
XFILLER_1_1490 vdd vss gf180mcu_fd_sc_mcu7t5v0__fill_1
X_6845_ _1910_ _2072_ vdd vss gf180mcu_fd_sc_mcu7t5v0__clkbuf_1
XFILLER_52_18 vdd vss gf180mcu_fd_sc_mcu7t5v0__fillcap_4
XANTENNA__8382__A2 _2236_ vdd vss gf180mcu_fd_sc_mcu7t5v0__antenna
XFILLER_39_1189 vdd vss gf180mcu_fd_sc_mcu7t5v0__fill_2
XFILLER_50_453 vdd vss gf180mcu_fd_sc_mcu7t5v0__fillcap_4
X_6776_ _1976_ _0744_ _1974_ _2005_ vdd vss gf180mcu_fd_sc_mcu7t5v0__mux2_2
XFILLER_52_1312 vdd vss gf180mcu_fd_sc_mcu7t5v0__fill_1
XANTENNA__8921__A4 _1576_ vdd vss gf180mcu_fd_sc_mcu7t5v0__antenna
XFILLER_108_1560 vdd vss gf180mcu_fd_sc_mcu7t5v0__fillcap_16
XANTENNA_clkbuf_3_3__f_wb_clk_i_I clknet_0_wb_clk_i vdd vss gf180mcu_fd_sc_mcu7t5v0__antenna
XANTENNA__6932__A3 _2143_ vdd vss gf180mcu_fd_sc_mcu7t5v0__antenna
X_8515_ _1033_ _2155_ _3659_ _3668_ _3669_ vdd vss gf180mcu_fd_sc_mcu7t5v0__nand4_2
X_5727_ _1046_ _1048_ _1051_ _1052_ vdd vss gf180mcu_fd_sc_mcu7t5v0__nand3_1
XANTENNA__4943__A2 _4319_ vdd vss gf180mcu_fd_sc_mcu7t5v0__antenna
XFILLER_52_1367 vdd vss gf180mcu_fd_sc_mcu7t5v0__fill_2
XANTENNA__8134__A2 _3257_ vdd vss gf180mcu_fd_sc_mcu7t5v0__antenna
XFILLER_104_1457 vdd vss gf180mcu_fd_sc_mcu7t5v0__fillcap_64
XFILLER_52_1389 vdd vss gf180mcu_fd_sc_mcu7t5v0__fill_2
X_8446_ _2903_ _3581_ _3396_ _3273_ _3602_ vdd vss gf180mcu_fd_sc_mcu7t5v0__oai211_1
XFILLER_108_216 vdd vss gf180mcu_fd_sc_mcu7t5v0__fillcap_4
XFILLER_108_227 vdd vss gf180mcu_fd_sc_mcu7t5v0__fill_2
X_5658_ _0984_ _0965_ _0988_ _0989_ vdd vss gf180mcu_fd_sc_mcu7t5v0__oai21_1
XFILLER_87_1419 vdd vss gf180mcu_fd_sc_mcu7t5v0__fill_1
XFILLER_136_569 vdd vss gf180mcu_fd_sc_mcu7t5v0__fill_2
X_4609_ as2650.cycle\[7\] as2650.cycle\[6\] as2650.cycle\[5\] as2650.cycle\[4\] _4190_
+ vdd vss gf180mcu_fd_sc_mcu7t5v0__nor4_4
XANTENNA__6696__A2 _1835_ vdd vss gf180mcu_fd_sc_mcu7t5v0__antenna
XANTENNA__7893__A1 _3069_ vdd vss gf180mcu_fd_sc_mcu7t5v0__antenna
X_8377_ _2217_ _2934_ _3536_ vdd vss gf180mcu_fd_sc_mcu7t5v0__nor2_1
XFILLER_123_208 vdd vss gf180mcu_fd_sc_mcu7t5v0__fill_2
XFILLER_11_1064 vdd vss gf180mcu_fd_sc_mcu7t5v0__fill_1
X_5589_ _4197_ _0921_ vdd vss gf180mcu_fd_sc_mcu7t5v0__buf_1
XFILLER_117_772 vdd vss gf180mcu_fd_sc_mcu7t5v0__fillcap_8
XFILLER_117_783 vdd vss gf180mcu_fd_sc_mcu7t5v0__fillcap_32
X_7328_ _2528_ _2495_ _2345_ _2529_ vdd vss gf180mcu_fd_sc_mcu7t5v0__oai21_1
XFILLER_2_527 vdd vss gf180mcu_fd_sc_mcu7t5v0__fillcap_4
XFILLER_132_731 vdd vss gf180mcu_fd_sc_mcu7t5v0__fillcap_8
XFILLER_117_66 vdd vss gf180mcu_fd_sc_mcu7t5v0__fillcap_4
XANTENNA__6448__A2 _0983_ vdd vss gf180mcu_fd_sc_mcu7t5v0__antenna
XFILLER_78_818 vdd vss gf180mcu_fd_sc_mcu7t5v0__fillcap_64
XFILLER_89_144 vdd vss gf180mcu_fd_sc_mcu7t5v0__fill_1
X_7259_ _2460_ _2407_ _2461_ vdd vss gf180mcu_fd_sc_mcu7t5v0__nand2_1
XFILLER_104_466 vdd vss gf180mcu_fd_sc_mcu7t5v0__fill_2
XFILLER_137_1277 vdd vss gf180mcu_fd_sc_mcu7t5v0__fill_1
XFILLER_63_1441 vdd vss gf180mcu_fd_sc_mcu7t5v0__fill_2
XFILLER_133_1119 vdd vss gf180mcu_fd_sc_mcu7t5v0__fillcap_16
XFILLER_77_59 vdd vss gf180mcu_fd_sc_mcu7t5v0__fillcap_8
XFILLER_89_188 vdd vss gf180mcu_fd_sc_mcu7t5v0__fill_2
XFILLER_58_520 vdd vss gf180mcu_fd_sc_mcu7t5v0__fill_2
XANTENNA__5120__A2 _0345_ vdd vss gf180mcu_fd_sc_mcu7t5v0__antenna
XFILLER_58_531 vdd vss gf180mcu_fd_sc_mcu7t5v0__fill_1
XFILLER_63_1485 vdd vss gf180mcu_fd_sc_mcu7t5v0__fillcap_4
XFILLER_115_1564 vdd vss gf180mcu_fd_sc_mcu7t5v0__fillcap_16
XFILLER_19_918 vdd vss gf180mcu_fd_sc_mcu7t5v0__fillcap_4
XTAP_3202 vdd vss gf180mcu_fd_sc_mcu7t5v0__filltie
XFILLER_86_884 vdd vss gf180mcu_fd_sc_mcu7t5v0__fill_2
XTAP_3213 vdd vss gf180mcu_fd_sc_mcu7t5v0__filltie
XFILLER_100_672 vdd vss gf180mcu_fd_sc_mcu7t5v0__fill_2
XTAP_3224 vdd vss gf180mcu_fd_sc_mcu7t5v0__filltie
XTAP_3235 vdd vss gf180mcu_fd_sc_mcu7t5v0__filltie
XFILLER_85_383 vdd vss gf180mcu_fd_sc_mcu7t5v0__fill_2
XTAP_2501 vdd vss gf180mcu_fd_sc_mcu7t5v0__filltie
XTAP_3246 vdd vss gf180mcu_fd_sc_mcu7t5v0__filltie
XANTENNA__5959__A1 _0505_ vdd vss gf180mcu_fd_sc_mcu7t5v0__antenna
XANTENNA_output37_I net37 vdd vss gf180mcu_fd_sc_mcu7t5v0__antenna
XTAP_3257 vdd vss gf180mcu_fd_sc_mcu7t5v0__filltie
XFILLER_93_58 vdd vss gf180mcu_fd_sc_mcu7t5v0__fill_2
XTAP_2512 vdd vss gf180mcu_fd_sc_mcu7t5v0__filltie
XTAP_3268 vdd vss gf180mcu_fd_sc_mcu7t5v0__filltie
XTAP_2523 vdd vss gf180mcu_fd_sc_mcu7t5v0__filltie
XTAP_3279 vdd vss gf180mcu_fd_sc_mcu7t5v0__filltie
XANTENNA__6335__I _1608_ vdd vss gf180mcu_fd_sc_mcu7t5v0__antenna
XFILLER_61_707 vdd vss gf180mcu_fd_sc_mcu7t5v0__fill_2
XTAP_2534 vdd vss gf180mcu_fd_sc_mcu7t5v0__filltie
XTAP_2545 vdd vss gf180mcu_fd_sc_mcu7t5v0__filltie
XTAP_1800 vdd vss gf180mcu_fd_sc_mcu7t5v0__filltie
XFILLER_73_578 vdd vss gf180mcu_fd_sc_mcu7t5v0__fillcap_4
XTAP_2556 vdd vss gf180mcu_fd_sc_mcu7t5v0__filltie
XTAP_1811 vdd vss gf180mcu_fd_sc_mcu7t5v0__filltie
XFILLER_73_589 vdd vss gf180mcu_fd_sc_mcu7t5v0__fill_2
XTAP_1822 vdd vss gf180mcu_fd_sc_mcu7t5v0__filltie
XANTENNA__4631__A1 as2650.alu_op\[0\] vdd vss gf180mcu_fd_sc_mcu7t5v0__antenna
XTAP_2567 vdd vss gf180mcu_fd_sc_mcu7t5v0__filltie
XFILLER_96_1283 vdd vss gf180mcu_fd_sc_mcu7t5v0__fill_2
XTAP_2578 vdd vss gf180mcu_fd_sc_mcu7t5v0__filltie
XTAP_1833 vdd vss gf180mcu_fd_sc_mcu7t5v0__filltie
XTAP_2589 vdd vss gf180mcu_fd_sc_mcu7t5v0__filltie
XTAP_1844 vdd vss gf180mcu_fd_sc_mcu7t5v0__filltie
XFILLER_109_1324 vdd vss gf180mcu_fd_sc_mcu7t5v0__fillcap_8
XTAP_1855 vdd vss gf180mcu_fd_sc_mcu7t5v0__filltie
XFILLER_109_1335 vdd vss gf180mcu_fd_sc_mcu7t5v0__fillcap_4
XTAP_1866 vdd vss gf180mcu_fd_sc_mcu7t5v0__filltie
XFILLER_92_1158 vdd vss gf180mcu_fd_sc_mcu7t5v0__fill_1
XFILLER_144_1237 vdd vss gf180mcu_fd_sc_mcu7t5v0__fillcap_4
XFILLER_109_1357 vdd vss gf180mcu_fd_sc_mcu7t5v0__fillcap_4
XFILLER_13_144 vdd vss gf180mcu_fd_sc_mcu7t5v0__fillcap_64
XTAP_1877 vdd vss gf180mcu_fd_sc_mcu7t5v0__filltie
XTAP_1888 vdd vss gf180mcu_fd_sc_mcu7t5v0__filltie
XTAP_1899 vdd vss gf180mcu_fd_sc_mcu7t5v0__filltie
XFILLER_144_1259 vdd vss gf180mcu_fd_sc_mcu7t5v0__fill_1
XFILLER_9_137 vdd vss gf180mcu_fd_sc_mcu7t5v0__fillcap_4
XFILLER_70_1445 vdd vss gf180mcu_fd_sc_mcu7t5v0__fill_2
XFILLER_107_1070 vdd vss gf180mcu_fd_sc_mcu7t5v0__fillcap_4
XANTENNA__4934__A2 _4514_ vdd vss gf180mcu_fd_sc_mcu7t5v0__antenna
XFILLER_139_352 vdd vss gf180mcu_fd_sc_mcu7t5v0__fill_2
XANTENNA__7166__I _1487_ vdd vss gf180mcu_fd_sc_mcu7t5v0__antenna
XFILLER_42_73 vdd vss gf180mcu_fd_sc_mcu7t5v0__fill_2
XFILLER_127_503 vdd vss gf180mcu_fd_sc_mcu7t5v0__fill_2
XFILLER_107_1081 vdd vss gf180mcu_fd_sc_mcu7t5v0__fill_2
XFILLER_6_811 vdd vss gf180mcu_fd_sc_mcu7t5v0__fillcap_4
XFILLER_115_709 vdd vss gf180mcu_fd_sc_mcu7t5v0__fill_1
XANTENNA__7884__A1 _3058_ vdd vss gf180mcu_fd_sc_mcu7t5v0__antenna
XFILLER_5_354 vdd vss gf180mcu_fd_sc_mcu7t5v0__fill_1
XFILLER_47_8 vdd vss gf180mcu_fd_sc_mcu7t5v0__fill_2
XFILLER_9_1419 vdd vss gf180mcu_fd_sc_mcu7t5v0__fill_1
XANTENNA__6439__A2 _0962_ vdd vss gf180mcu_fd_sc_mcu7t5v0__antenna
XFILLER_111_915 vdd vss gf180mcu_fd_sc_mcu7t5v0__fill_2
XFILLER_111_959 vdd vss gf180mcu_fd_sc_mcu7t5v0__fillcap_8
XFILLER_110_436 vdd vss gf180mcu_fd_sc_mcu7t5v0__fillcap_4
XFILLER_27_1060 vdd vss gf180mcu_fd_sc_mcu7t5v0__fillcap_4
XANTENNA__5111__A2 _0448_ vdd vss gf180mcu_fd_sc_mcu7t5v0__antenna
XFILLER_42_1525 vdd vss gf180mcu_fd_sc_mcu7t5v0__fill_1
XFILLER_49_531 vdd vss gf180mcu_fd_sc_mcu7t5v0__fill_1
XFILLER_110_458 vdd vss gf180mcu_fd_sc_mcu7t5v0__fill_2
XFILLER_77_851 vdd vss gf180mcu_fd_sc_mcu7t5v0__fill_1
XFILLER_67_70 vdd vss gf180mcu_fd_sc_mcu7t5v0__fill_1
XANTENNA__8725__I _3843_ vdd vss gf180mcu_fd_sc_mcu7t5v0__antenna
Xclkbuf_leaf_60_wb_clk_i clknet_opt_4_0_wb_clk_i clknet_leaf_60_wb_clk_i vdd vss gf180mcu_fd_sc_mcu7t5v0__clkbuf_16
XFILLER_92_810 vdd vss gf180mcu_fd_sc_mcu7t5v0__fill_2
XFILLER_36_203 vdd vss gf180mcu_fd_sc_mcu7t5v0__fill_2
XANTENNA__8061__A1 _3224_ vdd vss gf180mcu_fd_sc_mcu7t5v0__antenna
XFILLER_114_1096 vdd vss gf180mcu_fd_sc_mcu7t5v0__fillcap_4
XFILLER_64_534 vdd vss gf180mcu_fd_sc_mcu7t5v0__fill_1
XFILLER_64_545 vdd vss gf180mcu_fd_sc_mcu7t5v0__fillcap_16
XANTENNA__8600__A3 _3749_ vdd vss gf180mcu_fd_sc_mcu7t5v0__antenna
XFILLER_40_1271 vdd vss gf180mcu_fd_sc_mcu7t5v0__fill_2
XFILLER_36_247 vdd vss gf180mcu_fd_sc_mcu7t5v0__fill_1
XFILLER_52_707 vdd vss gf180mcu_fd_sc_mcu7t5v0__fill_1
XFILLER_92_876 vdd vss gf180mcu_fd_sc_mcu7t5v0__fill_2
XFILLER_97_1069 vdd vss gf180mcu_fd_sc_mcu7t5v0__fill_1
X_4960_ _4524_ _0298_ _0299_ vdd vss gf180mcu_fd_sc_mcu7t5v0__xor2_1
XANTENNA__4622__A1 _4195_ vdd vss gf180mcu_fd_sc_mcu7t5v0__antenna
XFILLER_75_1323 vdd vss gf180mcu_fd_sc_mcu7t5v0__fill_1
XFILLER_51_228 vdd vss gf180mcu_fd_sc_mcu7t5v0__fillcap_4
XFILLER_51_239 vdd vss gf180mcu_fd_sc_mcu7t5v0__fill_2
X_4891_ _4471_ _4472_ vdd vss gf180mcu_fd_sc_mcu7t5v0__clkbuf_1
XANTENNA__8364__A2 _3512_ vdd vss gf180mcu_fd_sc_mcu7t5v0__antenna
XFILLER_71_1209 vdd vss gf180mcu_fd_sc_mcu7t5v0__fill_1
X_6630_ _1028_ _1871_ _1878_ _0091_ vdd vss gf180mcu_fd_sc_mcu7t5v0__aoi21_1
XFILLER_34_1031 vdd vss gf180mcu_fd_sc_mcu7t5v0__fillcap_64
XFILLER_80_2 vdd vss gf180mcu_fd_sc_mcu7t5v0__fillcap_32
X_6561_ _1817_ _1820_ _1824_ vdd vss gf180mcu_fd_sc_mcu7t5v0__nand2_1
XFILLER_73_1091 vdd vss gf180mcu_fd_sc_mcu7t5v0__fill_2
XFILLER_125_1170 vdd vss gf180mcu_fd_sc_mcu7t5v0__fill_2
XANTENNA__8116__A2 _3257_ vdd vss gf180mcu_fd_sc_mcu7t5v0__antenna
X_8300_ _0901_ _4363_ _3461_ _3462_ vdd vss gf180mcu_fd_sc_mcu7t5v0__xor3_1
X_5512_ as2650.stack\[7\]\[14\] _0392_ _0846_ vdd vss gf180mcu_fd_sc_mcu7t5v0__nand2_1
XFILLER_121_1034 vdd vss gf180mcu_fd_sc_mcu7t5v0__fill_2
X_9280_ _0229_ clknet_leaf_43_wb_clk_i as2650.stack\[7\]\[6\] vdd vss gf180mcu_fd_sc_mcu7t5v0__dffq_1
X_6492_ _1750_ _1757_ _1758_ vdd vss gf180mcu_fd_sc_mcu7t5v0__xnor2_1
XFILLER_121_1067 vdd vss gf180mcu_fd_sc_mcu7t5v0__fill_1
X_8231_ _3360_ _3394_ _3395_ vdd vss gf180mcu_fd_sc_mcu7t5v0__and2_1
XANTENNA__7875__A1 _2531_ vdd vss gf180mcu_fd_sc_mcu7t5v0__antenna
X_5443_ _0592_ as2650.stack\[1\]\[13\] as2650.stack\[0\]\[13\] _0586_ _0778_ vdd vss
+ gf180mcu_fd_sc_mcu7t5v0__aoi22_1
XFILLER_69_1138 vdd vss gf180mcu_fd_sc_mcu7t5v0__fill_1
XFILLER_103_1490 vdd vss gf180mcu_fd_sc_mcu7t5v0__fill_1
XANTENNA__7804__I _1351_ vdd vss gf180mcu_fd_sc_mcu7t5v0__antenna
XFILLER_114_720 vdd vss gf180mcu_fd_sc_mcu7t5v0__fill_2
X_8162_ _0385_ _3328_ vdd vss gf180mcu_fd_sc_mcu7t5v0__buf_1
XFILLER_47_1414 vdd vss gf180mcu_fd_sc_mcu7t5v0__fillcap_4
X_5374_ _0698_ _0700_ _0709_ _0710_ vdd vss gf180mcu_fd_sc_mcu7t5v0__nor3_1
X_7113_ _1572_ _2317_ vdd vss gf180mcu_fd_sc_mcu7t5v0__buf_1
XFILLER_99_453 vdd vss gf180mcu_fd_sc_mcu7t5v0__fillcap_8
XFILLER_141_550 vdd vss gf180mcu_fd_sc_mcu7t5v0__fill_2
XFILLER_102_904 vdd vss gf180mcu_fd_sc_mcu7t5v0__fillcap_32
X_8093_ _1544_ _2482_ _3259_ _3260_ vdd vss gf180mcu_fd_sc_mcu7t5v0__oai21_1
XFILLER_114_775 vdd vss gf180mcu_fd_sc_mcu7t5v0__fill_2
XFILLER_141_561 vdd vss gf180mcu_fd_sc_mcu7t5v0__fill_2
XFILLER_101_425 vdd vss gf180mcu_fd_sc_mcu7t5v0__fill_1
X_7044_ _2238_ _2247_ _2249_ vdd vss gf180mcu_fd_sc_mcu7t5v0__nand2_1
XFILLER_68_851 vdd vss gf180mcu_fd_sc_mcu7t5v0__fill_2
XFILLER_132_1130 vdd vss gf180mcu_fd_sc_mcu7t5v0__fillcap_4
XFILLER_74_309 vdd vss gf180mcu_fd_sc_mcu7t5v0__fillcap_8
XANTENNA__7679__C _2695_ vdd vss gf180mcu_fd_sc_mcu7t5v0__antenna
XFILLER_80_1084 vdd vss gf180mcu_fd_sc_mcu7t5v0__fillcap_4
XFILLER_67_361 vdd vss gf180mcu_fd_sc_mcu7t5v0__fill_2
XFILLER_68_895 vdd vss gf180mcu_fd_sc_mcu7t5v0__fill_2
XFILLER_83_832 vdd vss gf180mcu_fd_sc_mcu7t5v0__fillcap_16
XANTENNA__8052__A1 net6 vdd vss gf180mcu_fd_sc_mcu7t5v0__antenna
XFILLER_132_1196 vdd vss gf180mcu_fd_sc_mcu7t5v0__fill_2
XFILLER_103_24 vdd vss gf180mcu_fd_sc_mcu7t5v0__fill_2
XFILLER_41_1079 vdd vss gf180mcu_fd_sc_mcu7t5v0__fill_1
XFILLER_83_854 vdd vss gf180mcu_fd_sc_mcu7t5v0__fillcap_16
XFILLER_94_191 vdd vss gf180mcu_fd_sc_mcu7t5v0__fill_2
X_8995_ _0495_ _4054_ _4059_ _3970_ _0275_ vdd vss gf180mcu_fd_sc_mcu7t5v0__aoi211_1
XFILLER_55_567 vdd vss gf180mcu_fd_sc_mcu7t5v0__fill_1
XFILLER_82_342 vdd vss gf180mcu_fd_sc_mcu7t5v0__fill_1
XFILLER_58_1521 vdd vss gf180mcu_fd_sc_mcu7t5v0__fillcap_4
X_7946_ _2199_ _3105_ _3120_ vdd vss gf180mcu_fd_sc_mcu7t5v0__nor2_1
XTAP_1107 vdd vss gf180mcu_fd_sc_mcu7t5v0__filltie
XFILLER_42_217 vdd vss gf180mcu_fd_sc_mcu7t5v0__fill_2
XTAP_1118 vdd vss gf180mcu_fd_sc_mcu7t5v0__filltie
XTAP_1129 vdd vss gf180mcu_fd_sc_mcu7t5v0__filltie
XFILLER_63_39 vdd vss gf180mcu_fd_sc_mcu7t5v0__fill_2
X_7877_ _3051_ _3052_ _3054_ _3055_ vdd vss gf180mcu_fd_sc_mcu7t5v0__nand3_1
XFILLER_58_1576 vdd vss gf180mcu_fd_sc_mcu7t5v0__fillcap_4
XANTENNA__8355__A2 _3512_ vdd vss gf180mcu_fd_sc_mcu7t5v0__antenna
XFILLER_51_751 vdd vss gf180mcu_fd_sc_mcu7t5v0__fillcap_16
XFILLER_50_250 vdd vss gf180mcu_fd_sc_mcu7t5v0__fill_1
X_6828_ _2035_ _2042_ _2054_ _2055_ vdd vss gf180mcu_fd_sc_mcu7t5v0__oai21_1
XANTENNA__8303__C _3464_ vdd vss gf180mcu_fd_sc_mcu7t5v0__antenna
X_6759_ _1957_ _1988_ _1989_ vdd vss gf180mcu_fd_sc_mcu7t5v0__xor2_1
XFILLER_17_1273 vdd vss gf180mcu_fd_sc_mcu7t5v0__fillcap_4
XANTENNA__9118__D _0067_ vdd vss gf180mcu_fd_sc_mcu7t5v0__antenna
XFILLER_109_514 vdd vss gf180mcu_fd_sc_mcu7t5v0__fill_2
XFILLER_136_311 vdd vss gf180mcu_fd_sc_mcu7t5v0__fill_1
XANTENNA__6118__A1 _4133_ vdd vss gf180mcu_fd_sc_mcu7t5v0__antenna
XFILLER_109_536 vdd vss gf180mcu_fd_sc_mcu7t5v0__fill_1
XFILLER_109_547 vdd vss gf180mcu_fd_sc_mcu7t5v0__fillcap_16
XFILLER_136_333 vdd vss gf180mcu_fd_sc_mcu7t5v0__fill_2
XFILLER_87_1216 vdd vss gf180mcu_fd_sc_mcu7t5v0__fill_2
XANTENNA__7866__A1 _0926_ vdd vss gf180mcu_fd_sc_mcu7t5v0__antenna
XFILLER_137_889 vdd vss gf180mcu_fd_sc_mcu7t5v0__fill_2
XFILLER_136_366 vdd vss gf180mcu_fd_sc_mcu7t5v0__fill_2
X_8429_ _2177_ _2334_ _3349_ _3586_ vdd vss gf180mcu_fd_sc_mcu7t5v0__aoi21_1
XFILLER_136_377 vdd vss gf180mcu_fd_sc_mcu7t5v0__fillcap_4
XFILLER_88_14 vdd vss gf180mcu_fd_sc_mcu7t5v0__fill_2
XFILLER_124_528 vdd vss gf180mcu_fd_sc_mcu7t5v0__fillcap_4
XFILLER_88_25 vdd vss gf180mcu_fd_sc_mcu7t5v0__fill_2
XFILLER_3_847 vdd vss gf180mcu_fd_sc_mcu7t5v0__fillcap_4
XANTENNA__7618__A1 _2780_ vdd vss gf180mcu_fd_sc_mcu7t5v0__antenna
XFILLER_104_241 vdd vss gf180mcu_fd_sc_mcu7t5v0__fill_2
XFILLER_105_786 vdd vss gf180mcu_fd_sc_mcu7t5v0__fillcap_8
XFILLER_78_637 vdd vss gf180mcu_fd_sc_mcu7t5v0__fill_2
XFILLER_137_1085 vdd vss gf180mcu_fd_sc_mcu7t5v0__fill_2
XFILLER_144_53 vdd vss gf180mcu_fd_sc_mcu7t5v0__fillcap_4
XANTENNA__8291__A1 _3224_ vdd vss gf180mcu_fd_sc_mcu7t5v0__antenna
XANTENNA__7094__A2 _2296_ vdd vss gf180mcu_fd_sc_mcu7t5v0__antenna
XFILLER_77_125 vdd vss gf180mcu_fd_sc_mcu7t5v0__fillcap_4
XFILLER_59_840 vdd vss gf180mcu_fd_sc_mcu7t5v0__fill_2
XFILLER_144_97 vdd vss gf180mcu_fd_sc_mcu7t5v0__fill_2
XFILLER_59_862 vdd vss gf180mcu_fd_sc_mcu7t5v0__fillcap_4
XFILLER_24_1244 vdd vss gf180mcu_fd_sc_mcu7t5v0__fillcap_64
XANTENNA__6841__A2 _2067_ vdd vss gf180mcu_fd_sc_mcu7t5v0__antenna