* NGSPICE file created from wrapped_as2650.ext - technology: gf180mcuC

* Black-box entry subcircuit for gf180mcu_fd_sc_mcu7t5v0__fill_2 abstract view
.subckt gf180mcu_fd_sc_mcu7t5v0__fill_2 VDD VSS
.ends

* Black-box entry subcircuit for gf180mcu_fd_sc_mcu7t5v0__fill_1 abstract view
.subckt gf180mcu_fd_sc_mcu7t5v0__fill_1 VDD VSS
.ends

* Black-box entry subcircuit for gf180mcu_fd_sc_mcu7t5v0__antenna abstract view
.subckt gf180mcu_fd_sc_mcu7t5v0__antenna I VDD VSS
.ends

* Black-box entry subcircuit for gf180mcu_fd_sc_mcu7t5v0__fillcap_8 abstract view
.subckt gf180mcu_fd_sc_mcu7t5v0__fillcap_8 VDD VSS
.ends

* Black-box entry subcircuit for gf180mcu_fd_sc_mcu7t5v0__nor2_2 abstract view
.subckt gf180mcu_fd_sc_mcu7t5v0__nor2_2 A1 A2 ZN VDD VSS
.ends

* Black-box entry subcircuit for gf180mcu_fd_sc_mcu7t5v0__fillcap_16 abstract view
.subckt gf180mcu_fd_sc_mcu7t5v0__fillcap_16 VDD VSS
.ends

* Black-box entry subcircuit for gf180mcu_fd_sc_mcu7t5v0__fillcap_4 abstract view
.subckt gf180mcu_fd_sc_mcu7t5v0__fillcap_4 VDD VSS
.ends

* Black-box entry subcircuit for gf180mcu_fd_sc_mcu7t5v0__nand2_1 abstract view
.subckt gf180mcu_fd_sc_mcu7t5v0__nand2_1 A1 A2 ZN VDD VSS
.ends

* Black-box entry subcircuit for gf180mcu_fd_sc_mcu7t5v0__buf_1 abstract view
.subckt gf180mcu_fd_sc_mcu7t5v0__buf_1 I Z VDD VSS
.ends

* Black-box entry subcircuit for gf180mcu_fd_sc_mcu7t5v0__nor3_2 abstract view
.subckt gf180mcu_fd_sc_mcu7t5v0__nor3_2 A1 A2 A3 ZN VDD VSS
.ends

* Black-box entry subcircuit for gf180mcu_fd_sc_mcu7t5v0__nand4_2 abstract view
.subckt gf180mcu_fd_sc_mcu7t5v0__nand4_2 A1 A2 A3 A4 ZN VDD VSS
.ends

* Black-box entry subcircuit for gf180mcu_fd_sc_mcu7t5v0__clkbuf_1 abstract view
.subckt gf180mcu_fd_sc_mcu7t5v0__clkbuf_1 I Z VDD VSS
.ends

* Black-box entry subcircuit for gf180mcu_fd_sc_mcu7t5v0__fillcap_32 abstract view
.subckt gf180mcu_fd_sc_mcu7t5v0__fillcap_32 VDD VSS
.ends

* Black-box entry subcircuit for gf180mcu_fd_sc_mcu7t5v0__nand4_1 abstract view
.subckt gf180mcu_fd_sc_mcu7t5v0__nand4_1 A1 A2 A3 A4 ZN VDD VSS
.ends

* Black-box entry subcircuit for gf180mcu_fd_sc_mcu7t5v0__oai21_1 abstract view
.subckt gf180mcu_fd_sc_mcu7t5v0__oai21_1 A1 A2 B ZN VDD VSS
.ends

* Black-box entry subcircuit for gf180mcu_fd_sc_mcu7t5v0__nor2_1 abstract view
.subckt gf180mcu_fd_sc_mcu7t5v0__nor2_1 A1 A2 ZN VDD VSS
.ends

* Black-box entry subcircuit for gf180mcu_fd_sc_mcu7t5v0__aoi21_1 abstract view
.subckt gf180mcu_fd_sc_mcu7t5v0__aoi21_1 A1 A2 B ZN VDD VSS
.ends

* Black-box entry subcircuit for gf180mcu_fd_sc_mcu7t5v0__aoi211_2 abstract view
.subckt gf180mcu_fd_sc_mcu7t5v0__aoi211_2 A1 A2 B C ZN VDD VSS
.ends

* Black-box entry subcircuit for gf180mcu_fd_sc_mcu7t5v0__filltie abstract view
.subckt gf180mcu_fd_sc_mcu7t5v0__filltie VDD VSS
.ends

* Black-box entry subcircuit for gf180mcu_fd_sc_mcu7t5v0__fillcap_64 abstract view
.subckt gf180mcu_fd_sc_mcu7t5v0__fillcap_64 VDD VSS
.ends

* Black-box entry subcircuit for gf180mcu_fd_sc_mcu7t5v0__nand3_1 abstract view
.subckt gf180mcu_fd_sc_mcu7t5v0__nand3_1 A1 A2 A3 ZN VDD VSS
.ends

* Black-box entry subcircuit for gf180mcu_fd_sc_mcu7t5v0__or2_1 abstract view
.subckt gf180mcu_fd_sc_mcu7t5v0__or2_1 A1 A2 Z VDD VSS
.ends

* Black-box entry subcircuit for gf180mcu_fd_sc_mcu7t5v0__xor2_1 abstract view
.subckt gf180mcu_fd_sc_mcu7t5v0__xor2_1 A1 A2 Z VDD VSS
.ends

* Black-box entry subcircuit for gf180mcu_fd_sc_mcu7t5v0__clkinv_1 abstract view
.subckt gf180mcu_fd_sc_mcu7t5v0__clkinv_1 I ZN VDD VSS
.ends

* Black-box entry subcircuit for gf180mcu_fd_sc_mcu7t5v0__oai211_1 abstract view
.subckt gf180mcu_fd_sc_mcu7t5v0__oai211_1 A1 A2 B C ZN VDD VSS
.ends

* Black-box entry subcircuit for gf180mcu_fd_sc_mcu7t5v0__mux2_2 abstract view
.subckt gf180mcu_fd_sc_mcu7t5v0__mux2_2 I0 I1 S Z VDD VSS
.ends

* Black-box entry subcircuit for gf180mcu_fd_sc_mcu7t5v0__dffq_1 abstract view
.subckt gf180mcu_fd_sc_mcu7t5v0__dffq_1 D CLK Q VDD VSS
.ends

* Black-box entry subcircuit for gf180mcu_fd_sc_mcu7t5v0__aoi22_1 abstract view
.subckt gf180mcu_fd_sc_mcu7t5v0__aoi22_1 A1 A2 B1 B2 ZN VDD VSS
.ends

* Black-box entry subcircuit for gf180mcu_fd_sc_mcu7t5v0__clkbuf_2 abstract view
.subckt gf180mcu_fd_sc_mcu7t5v0__clkbuf_2 I Z VDD VSS
.ends

* Black-box entry subcircuit for gf180mcu_fd_sc_mcu7t5v0__nor4_1 abstract view
.subckt gf180mcu_fd_sc_mcu7t5v0__nor4_1 A1 A2 A3 A4 ZN VDD VSS
.ends

* Black-box entry subcircuit for gf180mcu_fd_sc_mcu7t5v0__aoi221_1 abstract view
.subckt gf180mcu_fd_sc_mcu7t5v0__aoi221_1 A1 A2 B1 B2 C ZN VDD VSS
.ends

* Black-box entry subcircuit for gf180mcu_fd_sc_mcu7t5v0__aoi221_4 abstract view
.subckt gf180mcu_fd_sc_mcu7t5v0__aoi221_4 A1 A2 B1 B2 C ZN VDD VSS
.ends

* Black-box entry subcircuit for gf180mcu_fd_sc_mcu7t5v0__and2_1 abstract view
.subckt gf180mcu_fd_sc_mcu7t5v0__and2_1 A1 A2 Z VDD VSS
.ends

* Black-box entry subcircuit for gf180mcu_fd_sc_mcu7t5v0__oai31_2 abstract view
.subckt gf180mcu_fd_sc_mcu7t5v0__oai31_2 A1 A2 A3 B ZN VDD VSS
.ends

* Black-box entry subcircuit for gf180mcu_fd_sc_mcu7t5v0__nor4_4 abstract view
.subckt gf180mcu_fd_sc_mcu7t5v0__nor4_4 A1 A2 A3 A4 ZN VDD VSS
.ends

* Black-box entry subcircuit for gf180mcu_fd_sc_mcu7t5v0__xnor2_1 abstract view
.subckt gf180mcu_fd_sc_mcu7t5v0__xnor2_1 A1 A2 ZN VDD VSS
.ends

* Black-box entry subcircuit for gf180mcu_fd_sc_mcu7t5v0__oai31_1 abstract view
.subckt gf180mcu_fd_sc_mcu7t5v0__oai31_1 A1 A2 A3 B ZN VDD VSS
.ends

* Black-box entry subcircuit for gf180mcu_fd_sc_mcu7t5v0__or3_1 abstract view
.subckt gf180mcu_fd_sc_mcu7t5v0__or3_1 A1 A2 A3 Z VDD VSS
.ends

* Black-box entry subcircuit for gf180mcu_fd_sc_mcu7t5v0__nor3_1 abstract view
.subckt gf180mcu_fd_sc_mcu7t5v0__nor3_1 A1 A2 A3 ZN VDD VSS
.ends

* Black-box entry subcircuit for gf180mcu_fd_sc_mcu7t5v0__aoi221_2 abstract view
.subckt gf180mcu_fd_sc_mcu7t5v0__aoi221_2 A1 A2 B1 B2 C ZN VDD VSS
.ends

* Black-box entry subcircuit for gf180mcu_fd_sc_mcu7t5v0__nand3_2 abstract view
.subckt gf180mcu_fd_sc_mcu7t5v0__nand3_2 A1 A2 A3 ZN VDD VSS
.ends

* Black-box entry subcircuit for gf180mcu_fd_sc_mcu7t5v0__aoi211_1 abstract view
.subckt gf180mcu_fd_sc_mcu7t5v0__aoi211_1 A1 A2 B C ZN VDD VSS
.ends

* Black-box entry subcircuit for gf180mcu_fd_sc_mcu7t5v0__clkbuf_3 abstract view
.subckt gf180mcu_fd_sc_mcu7t5v0__clkbuf_3 I Z VDD VSS
.ends

* Black-box entry subcircuit for gf180mcu_fd_sc_mcu7t5v0__endcap abstract view
.subckt gf180mcu_fd_sc_mcu7t5v0__endcap VDD VSS
.ends

* Black-box entry subcircuit for gf180mcu_fd_sc_mcu7t5v0__aoi21_2 abstract view
.subckt gf180mcu_fd_sc_mcu7t5v0__aoi21_2 A1 A2 B ZN VDD VSS
.ends

* Black-box entry subcircuit for gf180mcu_fd_sc_mcu7t5v0__oai22_1 abstract view
.subckt gf180mcu_fd_sc_mcu7t5v0__oai22_1 A1 A2 B1 B2 ZN VDD VSS
.ends

* Black-box entry subcircuit for gf180mcu_fd_sc_mcu7t5v0__nand2_2 abstract view
.subckt gf180mcu_fd_sc_mcu7t5v0__nand2_2 A1 A2 ZN VDD VSS
.ends

* Black-box entry subcircuit for gf180mcu_fd_sc_mcu7t5v0__oai211_2 abstract view
.subckt gf180mcu_fd_sc_mcu7t5v0__oai211_2 A1 A2 B C ZN VDD VSS
.ends

* Black-box entry subcircuit for gf180mcu_fd_sc_mcu7t5v0__clkbuf_16 abstract view
.subckt gf180mcu_fd_sc_mcu7t5v0__clkbuf_16 I Z VDD VSS
.ends

* Black-box entry subcircuit for gf180mcu_fd_sc_mcu7t5v0__oai21_2 abstract view
.subckt gf180mcu_fd_sc_mcu7t5v0__oai21_2 A1 A2 B ZN VDD VSS
.ends

* Black-box entry subcircuit for gf180mcu_fd_sc_mcu7t5v0__and3_1 abstract view
.subckt gf180mcu_fd_sc_mcu7t5v0__and3_1 A1 A2 A3 Z VDD VSS
.ends

* Black-box entry subcircuit for gf180mcu_fd_sc_mcu7t5v0__oai32_1 abstract view
.subckt gf180mcu_fd_sc_mcu7t5v0__oai32_1 A1 A2 A3 B1 B2 ZN VDD VSS
.ends

* Black-box entry subcircuit for gf180mcu_fd_sc_mcu7t5v0__oai221_2 abstract view
.subckt gf180mcu_fd_sc_mcu7t5v0__oai221_2 A1 A2 B1 B2 C ZN VDD VSS
.ends

* Black-box entry subcircuit for gf180mcu_fd_sc_mcu7t5v0__xor3_1 abstract view
.subckt gf180mcu_fd_sc_mcu7t5v0__xor3_1 A1 A2 A3 Z VDD VSS
.ends

* Black-box entry subcircuit for gf180mcu_fd_sc_mcu7t5v0__aoi22_2 abstract view
.subckt gf180mcu_fd_sc_mcu7t5v0__aoi22_2 A1 A2 B1 B2 ZN VDD VSS
.ends

* Black-box entry subcircuit for gf180mcu_fd_sc_mcu7t5v0__oai221_1 abstract view
.subckt gf180mcu_fd_sc_mcu7t5v0__oai221_1 A1 A2 B1 B2 C ZN VDD VSS
.ends

* Black-box entry subcircuit for gf180mcu_fd_sc_mcu7t5v0__clkbuf_8 abstract view
.subckt gf180mcu_fd_sc_mcu7t5v0__clkbuf_8 I Z VDD VSS
.ends

* Black-box entry subcircuit for gf180mcu_fd_sc_mcu7t5v0__xnor3_1 abstract view
.subckt gf180mcu_fd_sc_mcu7t5v0__xnor3_1 A1 A2 A3 ZN VDD VSS
.ends

* Black-box entry subcircuit for gf180mcu_fd_sc_mcu7t5v0__and4_1 abstract view
.subckt gf180mcu_fd_sc_mcu7t5v0__and4_1 A1 A2 A3 A4 Z VDD VSS
.ends

* Black-box entry subcircuit for gf180mcu_fd_sc_mcu7t5v0__oai22_2 abstract view
.subckt gf180mcu_fd_sc_mcu7t5v0__oai22_2 A1 A2 B1 B2 ZN VDD VSS
.ends

* Black-box entry subcircuit for gf180mcu_fd_sc_mcu7t5v0__nor3_4 abstract view
.subckt gf180mcu_fd_sc_mcu7t5v0__nor3_4 A1 A2 A3 ZN VDD VSS
.ends

* Black-box entry subcircuit for gf180mcu_fd_sc_mcu7t5v0__or4_1 abstract view
.subckt gf180mcu_fd_sc_mcu7t5v0__or4_1 A1 A2 A3 A4 Z VDD VSS
.ends

* Black-box entry subcircuit for gf180mcu_fd_sc_mcu7t5v0__mux4_1 abstract view
.subckt gf180mcu_fd_sc_mcu7t5v0__mux4_1 I0 I1 I2 I3 S0 S1 Z VDD VSS
.ends

* Black-box entry subcircuit for gf180mcu_fd_sc_mcu7t5v0__nor2_4 abstract view
.subckt gf180mcu_fd_sc_mcu7t5v0__nor2_4 A1 A2 ZN VDD VSS
.ends

* Black-box entry subcircuit for gf180mcu_fd_sc_mcu7t5v0__buf_2 abstract view
.subckt gf180mcu_fd_sc_mcu7t5v0__buf_2 I Z VDD VSS
.ends

* Black-box entry subcircuit for gf180mcu_fd_sc_mcu7t5v0__clkinv_2 abstract view
.subckt gf180mcu_fd_sc_mcu7t5v0__clkinv_2 I ZN VDD VSS
.ends

* Black-box entry subcircuit for gf180mcu_fd_sc_mcu7t5v0__dlyb_1 abstract view
.subckt gf180mcu_fd_sc_mcu7t5v0__dlyb_1 I Z VDD VSS
.ends

* Black-box entry subcircuit for gf180mcu_fd_sc_mcu7t5v0__inv_1 abstract view
.subckt gf180mcu_fd_sc_mcu7t5v0__inv_1 I ZN VDD VSS
.ends

* Black-box entry subcircuit for gf180mcu_fd_sc_mcu7t5v0__tieh abstract view
.subckt gf180mcu_fd_sc_mcu7t5v0__tieh Z VDD VSS
.ends

* Black-box entry subcircuit for gf180mcu_fd_sc_mcu7t5v0__oai22_4 abstract view
.subckt gf180mcu_fd_sc_mcu7t5v0__oai22_4 A1 A2 B1 B2 ZN VDD VSS
.ends

* Black-box entry subcircuit for gf180mcu_fd_sc_mcu7t5v0__tiel abstract view
.subckt gf180mcu_fd_sc_mcu7t5v0__tiel ZN VDD VSS
.ends

* Black-box entry subcircuit for gf180mcu_fd_sc_mcu7t5v0__xor2_2 abstract view
.subckt gf180mcu_fd_sc_mcu7t5v0__xor2_2 A1 A2 Z VDD VSS
.ends

* Black-box entry subcircuit for gf180mcu_fd_sc_mcu7t5v0__nand4_4 abstract view
.subckt gf180mcu_fd_sc_mcu7t5v0__nand4_4 A1 A2 A3 A4 ZN VDD VSS
.ends

* Black-box entry subcircuit for gf180mcu_fd_sc_mcu7t5v0__mux4_4 abstract view
.subckt gf180mcu_fd_sc_mcu7t5v0__mux4_4 I0 I1 I2 I3 S0 S1 Z VDD VSS
.ends

* Black-box entry subcircuit for gf180mcu_fd_sc_mcu7t5v0__oai222_1 abstract view
.subckt gf180mcu_fd_sc_mcu7t5v0__oai222_1 A1 A2 B1 B2 C1 C2 ZN VDD VSS
.ends

* Black-box entry subcircuit for gf180mcu_fd_sc_mcu7t5v0__aoi222_2 abstract view
.subckt gf180mcu_fd_sc_mcu7t5v0__aoi222_2 A1 A2 B1 B2 C1 C2 ZN VDD VSS
.ends

* Black-box entry subcircuit for gf180mcu_fd_sc_mcu7t5v0__aoi222_4 abstract view
.subckt gf180mcu_fd_sc_mcu7t5v0__aoi222_4 A1 A2 B1 B2 C1 C2 ZN VDD VSS
.ends

* Black-box entry subcircuit for gf180mcu_fd_sc_mcu7t5v0__oai222_2 abstract view
.subckt gf180mcu_fd_sc_mcu7t5v0__oai222_2 A1 A2 B1 B2 C1 C2 ZN VDD VSS
.ends

* Black-box entry subcircuit for gf180mcu_fd_sc_mcu7t5v0__dlyc_1 abstract view
.subckt gf180mcu_fd_sc_mcu7t5v0__dlyc_1 I Z VDD VSS
.ends

* Black-box entry subcircuit for gf180mcu_fd_sc_mcu7t5v0__nor4_2 abstract view
.subckt gf180mcu_fd_sc_mcu7t5v0__nor4_2 A1 A2 A3 A4 ZN VDD VSS
.ends

* Black-box entry subcircuit for gf180mcu_fd_sc_mcu7t5v0__dffq_2 abstract view
.subckt gf180mcu_fd_sc_mcu7t5v0__dffq_2 D CLK Q VDD VSS
.ends

* Black-box entry subcircuit for gf180mcu_fd_sc_mcu7t5v0__aoi222_1 abstract view
.subckt gf180mcu_fd_sc_mcu7t5v0__aoi222_1 A1 A2 B1 B2 C1 C2 ZN VDD VSS
.ends

* Black-box entry subcircuit for gf180mcu_fd_sc_mcu7t5v0__and3_2 abstract view
.subckt gf180mcu_fd_sc_mcu7t5v0__and3_2 A1 A2 A3 Z VDD VSS
.ends

* Black-box entry subcircuit for gf180mcu_fd_sc_mcu7t5v0__buf_3 abstract view
.subckt gf180mcu_fd_sc_mcu7t5v0__buf_3 I Z VDD VSS
.ends

* Black-box entry subcircuit for gf180mcu_fd_sc_mcu7t5v0__aoi211_4 abstract view
.subckt gf180mcu_fd_sc_mcu7t5v0__aoi211_4 A1 A2 B C ZN VDD VSS
.ends

* Black-box entry subcircuit for gf180mcu_fd_sc_mcu7t5v0__and2_2 abstract view
.subckt gf180mcu_fd_sc_mcu7t5v0__and2_2 A1 A2 Z VDD VSS
.ends

* Black-box entry subcircuit for gf180mcu_fd_sc_mcu7t5v0__or2_2 abstract view
.subckt gf180mcu_fd_sc_mcu7t5v0__or2_2 A1 A2 Z VDD VSS
.ends

.subckt wrapped_as2650 io_in[0] io_in[10] io_in[11] io_in[12] io_in[13] io_in[14]
+ io_in[15] io_in[16] io_in[17] io_in[18] io_in[19] io_in[1] io_in[20] io_in[21] io_in[22]
+ io_in[23] io_in[24] io_in[25] io_in[26] io_in[27] io_in[28] io_in[29] io_in[2] io_in[30]
+ io_in[31] io_in[32] io_in[33] io_in[34] io_in[35] io_in[36] io_in[37] io_in[3] io_in[4]
+ io_in[5] io_in[6] io_in[7] io_in[8] io_in[9] io_oeb[0] io_oeb[10] io_oeb[11] io_oeb[12]
+ io_oeb[13] io_oeb[14] io_oeb[15] io_oeb[16] io_oeb[17] io_oeb[18] io_oeb[19] io_oeb[1]
+ io_oeb[20] io_oeb[21] io_oeb[22] io_oeb[23] io_oeb[24] io_oeb[25] io_oeb[26] io_oeb[27]
+ io_oeb[28] io_oeb[29] io_oeb[2] io_oeb[30] io_oeb[31] io_oeb[32] io_oeb[33] io_oeb[34]
+ io_oeb[35] io_oeb[36] io_oeb[37] io_oeb[3] io_oeb[4] io_oeb[5] io_oeb[6] io_oeb[7]
+ io_oeb[8] io_oeb[9] io_out[0] io_out[10] io_out[11] io_out[12] io_out[13] io_out[14]
+ io_out[15] io_out[16] io_out[17] io_out[18] io_out[19] io_out[1] io_out[20] io_out[21]
+ io_out[22] io_out[23] io_out[24] io_out[25] io_out[26] io_out[27] io_out[28] io_out[29]
+ io_out[2] io_out[30] io_out[31] io_out[32] io_out[33] io_out[34] io_out[35] io_out[36]
+ io_out[37] io_out[3] io_out[4] io_out[5] io_out[6] io_out[7] io_out[8] io_out[9]
+ vdd vss wb_clk_i wb_rst_i
XFILLER_79_380 vdd vss gf180mcu_fd_sc_mcu7t5v0__fill_2
XFILLER_95_851 vdd vss gf180mcu_fd_sc_mcu7t5v0__fill_1
XANTENNA__6209__A2 _1673_ vdd vss gf180mcu_fd_sc_mcu7t5v0__antenna
XANTENNA__7406__A1 _3885_ vdd vss gf180mcu_fd_sc_mcu7t5v0__antenna
XFILLER_80_1287 vdd vss gf180mcu_fd_sc_mcu7t5v0__fill_2
XFILLER_55_715 vdd vss gf180mcu_fd_sc_mcu7t5v0__fill_2
XFILLER_95_884 vdd vss gf180mcu_fd_sc_mcu7t5v0__fill_2
XFILLER_54_203 vdd vss gf180mcu_fd_sc_mcu7t5v0__fill_2
XFILLER_55_726 vdd vss gf180mcu_fd_sc_mcu7t5v0__fillcap_8
XANTENNA__7957__A2 _2306_ vdd vss gf180mcu_fd_sc_mcu7t5v0__antenna
XFILLER_27_428 vdd vss gf180mcu_fd_sc_mcu7t5v0__fill_1
XFILLER_27_439 vdd vss gf180mcu_fd_sc_mcu7t5v0__fill_1
XFILLER_55_748 vdd vss gf180mcu_fd_sc_mcu7t5v0__fill_2
X_7963_ _1378_ _2173_ _3318_ vdd vss gf180mcu_fd_sc_mcu7t5v0__nor2_2
XFILLER_82_534 vdd vss gf180mcu_fd_sc_mcu7t5v0__fillcap_16
XANTENNA__5968__A1 _0847_ vdd vss gf180mcu_fd_sc_mcu7t5v0__antenna
XFILLER_82_556 vdd vss gf180mcu_fd_sc_mcu7t5v0__fill_2
XFILLER_70_718 vdd vss gf180mcu_fd_sc_mcu7t5v0__fillcap_4
X_6914_ _2350_ _2351_ _2352_ vdd vss gf180mcu_fd_sc_mcu7t5v0__nand2_1
XFILLER_54_269 vdd vss gf180mcu_fd_sc_mcu7t5v0__fill_2
X_7894_ as2650.stack\[4\]\[14\] _1266_ _3272_ vdd vss gf180mcu_fd_sc_mcu7t5v0__nand2_1
XFILLER_39_1134 vdd vss gf180mcu_fd_sc_mcu7t5v0__fill_2
XFILLER_36_995 vdd vss gf180mcu_fd_sc_mcu7t5v0__fill_2
XANTENNA__8657__CLK clknet_leaf_69_wb_clk_i vdd vss gf180mcu_fd_sc_mcu7t5v0__antenna
XFILLER_74_1014 vdd vss gf180mcu_fd_sc_mcu7t5v0__fill_2
XFILLER_74_1025 vdd vss gf180mcu_fd_sc_mcu7t5v0__fillcap_4
X_6845_ _2085_ _2288_ vdd vss gf180mcu_fd_sc_mcu7t5v0__buf_1
XFILLER_51_965 vdd vss gf180mcu_fd_sc_mcu7t5v0__fill_1
XANTENNA__8382__A2 _1632_ vdd vss gf180mcu_fd_sc_mcu7t5v0__antenna
XFILLER_51_976 vdd vss gf180mcu_fd_sc_mcu7t5v0__fill_1
XFILLER_126_1148 vdd vss gf180mcu_fd_sc_mcu7t5v0__fillcap_8
XANTENNA__7684__C _1046_ vdd vss gf180mcu_fd_sc_mcu7t5v0__antenna
XFILLER_51_987 vdd vss gf180mcu_fd_sc_mcu7t5v0__fillcap_4
X_6776_ _1400_ _2082_ _2219_ _2220_ vdd vss gf180mcu_fd_sc_mcu7t5v0__nor3_2
XFILLER_52_1312 vdd vss gf180mcu_fd_sc_mcu7t5v0__fill_1
XFILLER_108_1560 vdd vss gf180mcu_fd_sc_mcu7t5v0__fillcap_16
XFILLER_104_1402 vdd vss gf180mcu_fd_sc_mcu7t5v0__fill_2
X_8515_ _1297_ _0462_ _3816_ _3832_ _3837_ vdd vss gf180mcu_fd_sc_mcu7t5v0__nand4_2
X_5727_ _1249_ _1258_ vdd vss gf180mcu_fd_sc_mcu7t5v0__clkbuf_1
XFILLER_109_717 vdd vss gf180mcu_fd_sc_mcu7t5v0__fillcap_32
XFILLER_104_1446 vdd vss gf180mcu_fd_sc_mcu7t5v0__fill_2
XFILLER_104_1457 vdd vss gf180mcu_fd_sc_mcu7t5v0__fill_1
XFILLER_52_1389 vdd vss gf180mcu_fd_sc_mcu7t5v0__fill_2
X_8446_ _1388_ _1391_ _1616_ _3775_ _3776_ vdd vss gf180mcu_fd_sc_mcu7t5v0__nand4_1
X_5658_ _1211_ _1169_ _1214_ _0047_ vdd vss gf180mcu_fd_sc_mcu7t5v0__oai21_1
XFILLER_108_238 vdd vss gf180mcu_fd_sc_mcu7t5v0__fill_1
XFILLER_50_1091 vdd vss gf180mcu_fd_sc_mcu7t5v0__fillcap_8
X_4609_ _4171_ _4091_ _4189_ vdd vss gf180mcu_fd_sc_mcu7t5v0__nor2_1
X_8377_ _2068_ _3701_ _3712_ vdd vss gf180mcu_fd_sc_mcu7t5v0__nand2_1
XFILLER_123_208 vdd vss gf180mcu_fd_sc_mcu7t5v0__fillcap_4
XFILLER_11_1064 vdd vss gf180mcu_fd_sc_mcu7t5v0__fill_1
X_5589_ _4158_ _1156_ _1160_ _1161_ vdd vss gf180mcu_fd_sc_mcu7t5v0__aoi21_1
XFILLER_117_783 vdd vss gf180mcu_fd_sc_mcu7t5v0__fill_2
X_7328_ _2743_ _2710_ _2744_ _2745_ _2746_ vdd vss gf180mcu_fd_sc_mcu7t5v0__aoi211_2
XFILLER_2_527 vdd vss gf180mcu_fd_sc_mcu7t5v0__fillcap_4
XFILLER_85_1143 vdd vss gf180mcu_fd_sc_mcu7t5v0__fill_1
XFILLER_137_1222 vdd vss gf180mcu_fd_sc_mcu7t5v0__fill_1
XFILLER_85_1154 vdd vss gf180mcu_fd_sc_mcu7t5v0__fill_2
XFILLER_132_731 vdd vss gf180mcu_fd_sc_mcu7t5v0__fillcap_8
XFILLER_89_122 vdd vss gf180mcu_fd_sc_mcu7t5v0__fillcap_4
XFILLER_137_1233 vdd vss gf180mcu_fd_sc_mcu7t5v0__fill_2
XFILLER_81_1007 vdd vss gf180mcu_fd_sc_mcu7t5v0__fill_2
XFILLER_89_133 vdd vss gf180mcu_fd_sc_mcu7t5v0__fillcap_8
XFILLER_132_753 vdd vss gf180mcu_fd_sc_mcu7t5v0__fillcap_4
XFILLER_137_1255 vdd vss gf180mcu_fd_sc_mcu7t5v0__fillcap_8
XFILLER_132_764 vdd vss gf180mcu_fd_sc_mcu7t5v0__fillcap_8
XFILLER_120_904 vdd vss gf180mcu_fd_sc_mcu7t5v0__fill_2
XANTENNA__7645__A1 _2137_ vdd vss gf180mcu_fd_sc_mcu7t5v0__antenna
XFILLER_78_818 vdd vss gf180mcu_fd_sc_mcu7t5v0__fill_2
XFILLER_89_144 vdd vss gf180mcu_fd_sc_mcu7t5v0__fill_2
XFILLER_105_989 vdd vss gf180mcu_fd_sc_mcu7t5v0__fillcap_4
XANTENNA__7645__B2 _3053_ vdd vss gf180mcu_fd_sc_mcu7t5v0__antenna
X_7259_ _2638_ _2678_ _2679_ vdd vss gf180mcu_fd_sc_mcu7t5v0__nand2_1
XFILLER_132_786 vdd vss gf180mcu_fd_sc_mcu7t5v0__fillcap_8
XFILLER_89_188 vdd vss gf180mcu_fd_sc_mcu7t5v0__fill_2
XFILLER_89_199 vdd vss gf180mcu_fd_sc_mcu7t5v0__fill_2
XFILLER_115_1564 vdd vss gf180mcu_fd_sc_mcu7t5v0__fillcap_16
XFILLER_19_918 vdd vss gf180mcu_fd_sc_mcu7t5v0__fillcap_4
XTAP_3202 vdd vss gf180mcu_fd_sc_mcu7t5v0__filltie
XTAP_3213 vdd vss gf180mcu_fd_sc_mcu7t5v0__filltie
XFILLER_85_361 vdd vss gf180mcu_fd_sc_mcu7t5v0__fill_2
XTAP_3224 vdd vss gf180mcu_fd_sc_mcu7t5v0__filltie
XANTENNA__7948__A2 _3283_ vdd vss gf180mcu_fd_sc_mcu7t5v0__antenna
XTAP_3235 vdd vss gf180mcu_fd_sc_mcu7t5v0__filltie
XFILLER_73_523 vdd vss gf180mcu_fd_sc_mcu7t5v0__fill_2
XTAP_2501 vdd vss gf180mcu_fd_sc_mcu7t5v0__filltie
XTAP_3246 vdd vss gf180mcu_fd_sc_mcu7t5v0__filltie
XANTENNA_output37_I net37 vdd vss gf180mcu_fd_sc_mcu7t5v0__antenna
XTAP_3257 vdd vss gf180mcu_fd_sc_mcu7t5v0__filltie
XTAP_2512 vdd vss gf180mcu_fd_sc_mcu7t5v0__filltie
XTAP_3268 vdd vss gf180mcu_fd_sc_mcu7t5v0__filltie
XTAP_2523 vdd vss gf180mcu_fd_sc_mcu7t5v0__filltie
XTAP_3279 vdd vss gf180mcu_fd_sc_mcu7t5v0__filltie
XTAP_2534 vdd vss gf180mcu_fd_sc_mcu7t5v0__filltie
XFILLER_73_567 vdd vss gf180mcu_fd_sc_mcu7t5v0__fill_1
XANTENNA__6620__A2 _1335_ vdd vss gf180mcu_fd_sc_mcu7t5v0__antenna
XTAP_2545 vdd vss gf180mcu_fd_sc_mcu7t5v0__filltie
XTAP_1800 vdd vss gf180mcu_fd_sc_mcu7t5v0__filltie
XFILLER_73_578 vdd vss gf180mcu_fd_sc_mcu7t5v0__fill_2
XTAP_2556 vdd vss gf180mcu_fd_sc_mcu7t5v0__filltie
XTAP_1811 vdd vss gf180mcu_fd_sc_mcu7t5v0__filltie
XTAP_1822 vdd vss gf180mcu_fd_sc_mcu7t5v0__filltie
XTAP_2567 vdd vss gf180mcu_fd_sc_mcu7t5v0__filltie
XFILLER_96_1283 vdd vss gf180mcu_fd_sc_mcu7t5v0__fillcap_4
XTAP_2578 vdd vss gf180mcu_fd_sc_mcu7t5v0__filltie
XFILLER_54_792 vdd vss gf180mcu_fd_sc_mcu7t5v0__fill_2
XTAP_1833 vdd vss gf180mcu_fd_sc_mcu7t5v0__filltie
XTAP_2589 vdd vss gf180mcu_fd_sc_mcu7t5v0__filltie
XTAP_1844 vdd vss gf180mcu_fd_sc_mcu7t5v0__filltie
XFILLER_92_1136 vdd vss gf180mcu_fd_sc_mcu7t5v0__fill_1
XTAP_1855 vdd vss gf180mcu_fd_sc_mcu7t5v0__filltie
XTAP_1866 vdd vss gf180mcu_fd_sc_mcu7t5v0__filltie
XFILLER_92_1147 vdd vss gf180mcu_fd_sc_mcu7t5v0__fill_2
XFILLER_42_965 vdd vss gf180mcu_fd_sc_mcu7t5v0__fill_2
XFILLER_144_1237 vdd vss gf180mcu_fd_sc_mcu7t5v0__fillcap_8
XFILLER_109_1357 vdd vss gf180mcu_fd_sc_mcu7t5v0__fill_1
XFILLER_41_453 vdd vss gf180mcu_fd_sc_mcu7t5v0__fill_2
XFILLER_13_144 vdd vss gf180mcu_fd_sc_mcu7t5v0__fillcap_64
XTAP_1877 vdd vss gf180mcu_fd_sc_mcu7t5v0__filltie
XFILLER_92_1169 vdd vss gf180mcu_fd_sc_mcu7t5v0__fill_2
XTAP_1888 vdd vss gf180mcu_fd_sc_mcu7t5v0__filltie
XFILLER_109_1368 vdd vss gf180mcu_fd_sc_mcu7t5v0__fill_1
XANTENNA__6384__A1 _1860_ vdd vss gf180mcu_fd_sc_mcu7t5v0__antenna
XTAP_1899 vdd vss gf180mcu_fd_sc_mcu7t5v0__filltie
XFILLER_144_1259 vdd vss gf180mcu_fd_sc_mcu7t5v0__fill_1
XFILLER_9_137 vdd vss gf180mcu_fd_sc_mcu7t5v0__fillcap_4
XANTENNA__7166__I _1617_ vdd vss gf180mcu_fd_sc_mcu7t5v0__antenna
XANTENNA__8125__A2 _3474_ vdd vss gf180mcu_fd_sc_mcu7t5v0__antenna
XFILLER_139_374 vdd vss gf180mcu_fd_sc_mcu7t5v0__fillcap_16
XFILLER_6_811 vdd vss gf180mcu_fd_sc_mcu7t5v0__fillcap_4
XFILLER_127_525 vdd vss gf180mcu_fd_sc_mcu7t5v0__fillcap_8
XANTENNA__6136__A1 _1634_ vdd vss gf180mcu_fd_sc_mcu7t5v0__antenna
XFILLER_115_709 vdd vss gf180mcu_fd_sc_mcu7t5v0__fill_1
XANTENNA__6687__A2 _2119_ vdd vss gf180mcu_fd_sc_mcu7t5v0__antenna
XFILLER_5_354 vdd vss gf180mcu_fd_sc_mcu7t5v0__fill_1
XFILLER_108_772 vdd vss gf180mcu_fd_sc_mcu7t5v0__fill_2
XFILLER_114_219 vdd vss gf180mcu_fd_sc_mcu7t5v0__fillcap_4
XFILLER_68_1374 vdd vss gf180mcu_fd_sc_mcu7t5v0__fill_2
XFILLER_9_1419 vdd vss gf180mcu_fd_sc_mcu7t5v0__fill_1
XANTENNA__7636__A1 _0973_ vdd vss gf180mcu_fd_sc_mcu7t5v0__antenna
XANTENNA__7636__B2 _3045_ vdd vss gf180mcu_fd_sc_mcu7t5v0__antenna
XANTENNA__5414__I _0817_ vdd vss gf180mcu_fd_sc_mcu7t5v0__antenna
XFILLER_110_403 vdd vss gf180mcu_fd_sc_mcu7t5v0__fillcap_32
XFILLER_116_1339 vdd vss gf180mcu_fd_sc_mcu7t5v0__fillcap_16
XFILLER_111_959 vdd vss gf180mcu_fd_sc_mcu7t5v0__fill_2
XFILLER_42_1525 vdd vss gf180mcu_fd_sc_mcu7t5v0__fill_1
XFILLER_95_147 vdd vss gf180mcu_fd_sc_mcu7t5v0__fill_2
XFILLER_67_70 vdd vss gf180mcu_fd_sc_mcu7t5v0__fill_1
XFILLER_114_1052 vdd vss gf180mcu_fd_sc_mcu7t5v0__fillcap_16
XFILLER_37_715 vdd vss gf180mcu_fd_sc_mcu7t5v0__fill_2
XANTENNA__7769__C _3120_ vdd vss gf180mcu_fd_sc_mcu7t5v0__antenna
XFILLER_77_884 vdd vss gf180mcu_fd_sc_mcu7t5v0__fill_2
XFILLER_64_512 vdd vss gf180mcu_fd_sc_mcu7t5v0__fill_2
XFILLER_97_1025 vdd vss gf180mcu_fd_sc_mcu7t5v0__fillcap_16
XANTENNA__8061__A1 net30 vdd vss gf180mcu_fd_sc_mcu7t5v0__antenna
XFILLER_64_534 vdd vss gf180mcu_fd_sc_mcu7t5v0__fillcap_16
XFILLER_91_331 vdd vss gf180mcu_fd_sc_mcu7t5v0__fillcap_16
XFILLER_36_247 vdd vss gf180mcu_fd_sc_mcu7t5v0__fill_1
XANTENNA__6611__A2 _2073_ vdd vss gf180mcu_fd_sc_mcu7t5v0__antenna
X_4960_ _4162_ _0511_ _0559_ _0560_ vdd vss gf180mcu_fd_sc_mcu7t5v0__aoi21_1
XFILLER_64_589 vdd vss gf180mcu_fd_sc_mcu7t5v0__fillcap_8
XFILLER_75_1312 vdd vss gf180mcu_fd_sc_mcu7t5v0__fill_1
XFILLER_33_921 vdd vss gf180mcu_fd_sc_mcu7t5v0__fill_2
XANTENNA__7785__B _1408_ vdd vss gf180mcu_fd_sc_mcu7t5v0__antenna
XFILLER_60_740 vdd vss gf180mcu_fd_sc_mcu7t5v0__fill_2
X_4891_ _0485_ _0412_ _0491_ vdd vss gf180mcu_fd_sc_mcu7t5v0__nand2_1
XFILLER_71_1209 vdd vss gf180mcu_fd_sc_mcu7t5v0__fill_1
X_6630_ _3954_ _2091_ _2092_ _2093_ vdd vss gf180mcu_fd_sc_mcu7t5v0__nand3_1
XANTENNA__5178__A2 _0471_ vdd vss gf180mcu_fd_sc_mcu7t5v0__antenna
XFILLER_32_497 vdd vss gf180mcu_fd_sc_mcu7t5v0__fill_2
XFILLER_34_1031 vdd vss gf180mcu_fd_sc_mcu7t5v0__fillcap_32
XFILLER_80_2 vdd vss gf180mcu_fd_sc_mcu7t5v0__fillcap_32
X_6561_ _2031_ _1652_ _2032_ vdd vss gf180mcu_fd_sc_mcu7t5v0__or2_1
XFILLER_125_1170 vdd vss gf180mcu_fd_sc_mcu7t5v0__fill_2
XANTENNA__8116__A2 _2737_ vdd vss gf180mcu_fd_sc_mcu7t5v0__antenna
X_8300_ _3642_ _3643_ _2131_ _3644_ vdd vss gf180mcu_fd_sc_mcu7t5v0__aoi21_1
X_5512_ as2650.stack\[0\]\[2\] _1090_ _1098_ vdd vss gf180mcu_fd_sc_mcu7t5v0__nand2_1
XANTENNA__6127__A1 _0849_ vdd vss gf180mcu_fd_sc_mcu7t5v0__antenna
XFILLER_34_1097 vdd vss gf180mcu_fd_sc_mcu7t5v0__fill_2
X_6492_ _1970_ _1972_ _1973_ vdd vss gf180mcu_fd_sc_mcu7t5v0__xor2_1
XFILLER_118_547 vdd vss gf180mcu_fd_sc_mcu7t5v0__fillcap_32
XFILLER_121_1067 vdd vss gf180mcu_fd_sc_mcu7t5v0__fillcap_4
XFILLER_106_709 vdd vss gf180mcu_fd_sc_mcu7t5v0__fill_1
X_8231_ _3900_ _3577_ _3578_ vdd vss gf180mcu_fd_sc_mcu7t5v0__nor2_1
XFILLER_69_1127 vdd vss gf180mcu_fd_sc_mcu7t5v0__fill_2
X_5443_ _3880_ _1031_ vdd vss gf180mcu_fd_sc_mcu7t5v0__buf_1
XFILLER_69_1138 vdd vss gf180mcu_fd_sc_mcu7t5v0__fill_1
XANTENNA__6922__I0 _0429_ vdd vss gf180mcu_fd_sc_mcu7t5v0__antenna
XFILLER_103_1490 vdd vss gf180mcu_fd_sc_mcu7t5v0__fill_1
XFILLER_133_528 vdd vss gf180mcu_fd_sc_mcu7t5v0__fillcap_4
X_8162_ _2824_ _3510_ _3511_ vdd vss gf180mcu_fd_sc_mcu7t5v0__xor2_1
X_5374_ as2650.r123\[0\]\[4\] _0966_ vdd vss gf180mcu_fd_sc_mcu7t5v0__clkinv_1
XFILLER_47_1414 vdd vss gf180mcu_fd_sc_mcu7t5v0__fillcap_4
XFILLER_82_1305 vdd vss gf180mcu_fd_sc_mcu7t5v0__fill_1
X_7113_ _1014_ _2535_ vdd vss gf180mcu_fd_sc_mcu7t5v0__buf_1
XFILLER_82_1327 vdd vss gf180mcu_fd_sc_mcu7t5v0__fill_1
XANTENNA__7627__A1 as2650.pc\[12\] vdd vss gf180mcu_fd_sc_mcu7t5v0__antenna
X_4325_ _3904_ _3905_ _3906_ vdd vss gf180mcu_fd_sc_mcu7t5v0__nand2_1
X_8093_ net31 _3444_ vdd vss gf180mcu_fd_sc_mcu7t5v0__clkinv_1
XFILLER_82_1338 vdd vss gf180mcu_fd_sc_mcu7t5v0__fill_1
XFILLER_99_475 vdd vss gf180mcu_fd_sc_mcu7t5v0__fillcap_16
XFILLER_59_306 vdd vss gf180mcu_fd_sc_mcu7t5v0__fill_2
XFILLER_102_937 vdd vss gf180mcu_fd_sc_mcu7t5v0__fillcap_16
X_7044_ _2460_ _2472_ vdd vss gf180mcu_fd_sc_mcu7t5v0__clkinv_1
XFILLER_101_425 vdd vss gf180mcu_fd_sc_mcu7t5v0__fill_1
XFILLER_87_648 vdd vss gf180mcu_fd_sc_mcu7t5v0__fillcap_32
XFILLER_86_136 vdd vss gf180mcu_fd_sc_mcu7t5v0__fill_1
XFILLER_86_147 vdd vss gf180mcu_fd_sc_mcu7t5v0__fill_2
XFILLER_86_158 vdd vss gf180mcu_fd_sc_mcu7t5v0__fillcap_4
XFILLER_132_1141 vdd vss gf180mcu_fd_sc_mcu7t5v0__fill_2
XANTENNA__6850__A2 _1311_ vdd vss gf180mcu_fd_sc_mcu7t5v0__antenna
XFILLER_67_350 vdd vss gf180mcu_fd_sc_mcu7t5v0__fill_2
XFILLER_110_981 vdd vss gf180mcu_fd_sc_mcu7t5v0__fillcap_4
XFILLER_83_821 vdd vss gf180mcu_fd_sc_mcu7t5v0__fill_1
XANTENNA__4861__A1 _3967_ vdd vss gf180mcu_fd_sc_mcu7t5v0__antenna
XANTENNA__8052__A1 _1093_ vdd vss gf180mcu_fd_sc_mcu7t5v0__antenna
XFILLER_67_383 vdd vss gf180mcu_fd_sc_mcu7t5v0__fillcap_4
XANTENNA__8052__B2 _2331_ vdd vss gf180mcu_fd_sc_mcu7t5v0__antenna
XFILLER_67_394 vdd vss gf180mcu_fd_sc_mcu7t5v0__fill_2
XFILLER_82_331 vdd vss gf180mcu_fd_sc_mcu7t5v0__fill_1
XFILLER_83_854 vdd vss gf180mcu_fd_sc_mcu7t5v0__fill_1
XFILLER_83_865 vdd vss gf180mcu_fd_sc_mcu7t5v0__fillcap_8
XFILLER_103_68 vdd vss gf180mcu_fd_sc_mcu7t5v0__fill_2
XFILLER_55_578 vdd vss gf180mcu_fd_sc_mcu7t5v0__fill_1
XFILLER_58_1521 vdd vss gf180mcu_fd_sc_mcu7t5v0__fill_2
XFILLER_93_1401 vdd vss gf180mcu_fd_sc_mcu7t5v0__fill_2
XFILLER_103_79 vdd vss gf180mcu_fd_sc_mcu7t5v0__fill_2
XFILLER_36_770 vdd vss gf180mcu_fd_sc_mcu7t5v0__fillcap_8
XTAP_1107 vdd vss gf180mcu_fd_sc_mcu7t5v0__filltie
X_7946_ as2650.stack\[7\]\[5\] _3300_ _3304_ vdd vss gf180mcu_fd_sc_mcu7t5v0__nand2_1
XFILLER_82_375 vdd vss gf180mcu_fd_sc_mcu7t5v0__fillcap_4
XFILLER_93_1412 vdd vss gf180mcu_fd_sc_mcu7t5v0__fill_2
XTAP_1118 vdd vss gf180mcu_fd_sc_mcu7t5v0__filltie
XTAP_1129 vdd vss gf180mcu_fd_sc_mcu7t5v0__filltie
XFILLER_36_781 vdd vss gf180mcu_fd_sc_mcu7t5v0__fill_2
XFILLER_58_1543 vdd vss gf180mcu_fd_sc_mcu7t5v0__fill_2
X_7877_ _1199_ _3262_ vdd vss gf180mcu_fd_sc_mcu7t5v0__clkbuf_1
XANTENNA__5994__I net6 vdd vss gf180mcu_fd_sc_mcu7t5v0__antenna
XFILLER_50_250 vdd vss gf180mcu_fd_sc_mcu7t5v0__fillcap_16
X_6828_ _2271_ _2272_ vdd vss gf180mcu_fd_sc_mcu7t5v0__buf_1
XANTENNA__8303__C _2465_ vdd vss gf180mcu_fd_sc_mcu7t5v0__antenna
XFILLER_50_283 vdd vss gf180mcu_fd_sc_mcu7t5v0__fill_2
X_6759_ _0457_ _2194_ _2206_ _2207_ _0155_ vdd vss gf180mcu_fd_sc_mcu7t5v0__oai211_1
XANTENNA__4916__A2 _0412_ vdd vss gf180mcu_fd_sc_mcu7t5v0__antenna
XFILLER_17_1273 vdd vss gf180mcu_fd_sc_mcu7t5v0__fillcap_4
XANTENNA__8107__A2 _0518_ vdd vss gf180mcu_fd_sc_mcu7t5v0__antenna
XANTENNA__6118__A1 _1609_ vdd vss gf180mcu_fd_sc_mcu7t5v0__antenna
XFILLER_109_547 vdd vss gf180mcu_fd_sc_mcu7t5v0__fill_1
XFILLER_87_1216 vdd vss gf180mcu_fd_sc_mcu7t5v0__fill_2
XFILLER_136_344 vdd vss gf180mcu_fd_sc_mcu7t5v0__fillcap_4
XFILLER_109_558 vdd vss gf180mcu_fd_sc_mcu7t5v0__fill_2
XFILLER_100_1118 vdd vss gf180mcu_fd_sc_mcu7t5v0__fill_2
XANTENNA__6669__A2 _2120_ vdd vss gf180mcu_fd_sc_mcu7t5v0__antenna
XFILLER_100_1129 vdd vss gf180mcu_fd_sc_mcu7t5v0__fillcap_32
XANTENNA__5943__B _0817_ vdd vss gf180mcu_fd_sc_mcu7t5v0__antenna
XFILLER_87_1227 vdd vss gf180mcu_fd_sc_mcu7t5v0__fill_2
X_8429_ _1495_ _2337_ _3759_ _3760_ vdd vss gf180mcu_fd_sc_mcu7t5v0__nand3_1
XANTENNA__7714__I _3120_ vdd vss gf180mcu_fd_sc_mcu7t5v0__antenna
XANTENNA__5877__B1 _1394_ vdd vss gf180mcu_fd_sc_mcu7t5v0__antenna
XFILLER_105_720 vdd vss gf180mcu_fd_sc_mcu7t5v0__fill_2
XFILLER_3_847 vdd vss gf180mcu_fd_sc_mcu7t5v0__fillcap_4
XFILLER_77_103 vdd vss gf180mcu_fd_sc_mcu7t5v0__fill_2
XFILLER_78_637 vdd vss gf180mcu_fd_sc_mcu7t5v0__fill_1
XFILLER_78_648 vdd vss gf180mcu_fd_sc_mcu7t5v0__fill_2
XFILLER_144_53 vdd vss gf180mcu_fd_sc_mcu7t5v0__fillcap_4
XFILLER_137_1096 vdd vss gf180mcu_fd_sc_mcu7t5v0__fillcap_4