* NGSPICE file created from wrapped_as2650.ext - technology: gf180mcuC

* Black-box entry subcircuit for gf180mcu_fd_sc_mcu7t5v0__fill_1 abstract view
.subckt gf180mcu_fd_sc_mcu7t5v0__fill_1 VDD VSS
.ends

* Black-box entry subcircuit for gf180mcu_fd_sc_mcu7t5v0__fill_2 abstract view
.subckt gf180mcu_fd_sc_mcu7t5v0__fill_2 VDD VSS
.ends

* Black-box entry subcircuit for gf180mcu_fd_sc_mcu7t5v0__antenna abstract view
.subckt gf180mcu_fd_sc_mcu7t5v0__antenna I VDD VSS
.ends

* Black-box entry subcircuit for gf180mcu_fd_sc_mcu7t5v0__fillcap_4 abstract view
.subckt gf180mcu_fd_sc_mcu7t5v0__fillcap_4 VDD VSS
.ends

* Black-box entry subcircuit for gf180mcu_fd_sc_mcu7t5v0__fillcap_16 abstract view
.subckt gf180mcu_fd_sc_mcu7t5v0__fillcap_16 VDD VSS
.ends

* Black-box entry subcircuit for gf180mcu_fd_sc_mcu7t5v0__buf_1 abstract view
.subckt gf180mcu_fd_sc_mcu7t5v0__buf_1 I Z VDD VSS
.ends

* Black-box entry subcircuit for gf180mcu_fd_sc_mcu7t5v0__aoi21_1 abstract view
.subckt gf180mcu_fd_sc_mcu7t5v0__aoi21_1 A1 A2 B ZN VDD VSS
.ends

* Black-box entry subcircuit for gf180mcu_fd_sc_mcu7t5v0__and3_1 abstract view
.subckt gf180mcu_fd_sc_mcu7t5v0__and3_1 A1 A2 A3 Z VDD VSS
.ends

* Black-box entry subcircuit for gf180mcu_fd_sc_mcu7t5v0__fillcap_8 abstract view
.subckt gf180mcu_fd_sc_mcu7t5v0__fillcap_8 VDD VSS
.ends

* Black-box entry subcircuit for gf180mcu_fd_sc_mcu7t5v0__nand2_1 abstract view
.subckt gf180mcu_fd_sc_mcu7t5v0__nand2_1 A1 A2 ZN VDD VSS
.ends

* Black-box entry subcircuit for gf180mcu_fd_sc_mcu7t5v0__oai21_1 abstract view
.subckt gf180mcu_fd_sc_mcu7t5v0__oai21_1 A1 A2 B ZN VDD VSS
.ends

* Black-box entry subcircuit for gf180mcu_fd_sc_mcu7t5v0__xor2_1 abstract view
.subckt gf180mcu_fd_sc_mcu7t5v0__xor2_1 A1 A2 Z VDD VSS
.ends

* Black-box entry subcircuit for gf180mcu_fd_sc_mcu7t5v0__nor2_1 abstract view
.subckt gf180mcu_fd_sc_mcu7t5v0__nor2_1 A1 A2 ZN VDD VSS
.ends

* Black-box entry subcircuit for gf180mcu_fd_sc_mcu7t5v0__nor2_2 abstract view
.subckt gf180mcu_fd_sc_mcu7t5v0__nor2_2 A1 A2 ZN VDD VSS
.ends

* Black-box entry subcircuit for gf180mcu_fd_sc_mcu7t5v0__nand4_1 abstract view
.subckt gf180mcu_fd_sc_mcu7t5v0__nand4_1 A1 A2 A3 A4 ZN VDD VSS
.ends

* Black-box entry subcircuit for gf180mcu_fd_sc_mcu7t5v0__clkbuf_2 abstract view
.subckt gf180mcu_fd_sc_mcu7t5v0__clkbuf_2 I Z VDD VSS
.ends

* Black-box entry subcircuit for gf180mcu_fd_sc_mcu7t5v0__clkbuf_1 abstract view
.subckt gf180mcu_fd_sc_mcu7t5v0__clkbuf_1 I Z VDD VSS
.ends

* Black-box entry subcircuit for gf180mcu_fd_sc_mcu7t5v0__fillcap_32 abstract view
.subckt gf180mcu_fd_sc_mcu7t5v0__fillcap_32 VDD VSS
.ends

* Black-box entry subcircuit for gf180mcu_fd_sc_mcu7t5v0__filltie abstract view
.subckt gf180mcu_fd_sc_mcu7t5v0__filltie VDD VSS
.ends

* Black-box entry subcircuit for gf180mcu_fd_sc_mcu7t5v0__fillcap_64 abstract view
.subckt gf180mcu_fd_sc_mcu7t5v0__fillcap_64 VDD VSS
.ends

* Black-box entry subcircuit for gf180mcu_fd_sc_mcu7t5v0__clkbuf_16 abstract view
.subckt gf180mcu_fd_sc_mcu7t5v0__clkbuf_16 I Z VDD VSS
.ends

* Black-box entry subcircuit for gf180mcu_fd_sc_mcu7t5v0__oai211_1 abstract view
.subckt gf180mcu_fd_sc_mcu7t5v0__oai211_1 A1 A2 B C ZN VDD VSS
.ends

* Black-box entry subcircuit for gf180mcu_fd_sc_mcu7t5v0__nand3_1 abstract view
.subckt gf180mcu_fd_sc_mcu7t5v0__nand3_1 A1 A2 A3 ZN VDD VSS
.ends

* Black-box entry subcircuit for gf180mcu_fd_sc_mcu7t5v0__aoi22_1 abstract view
.subckt gf180mcu_fd_sc_mcu7t5v0__aoi22_1 A1 A2 B1 B2 ZN VDD VSS
.ends

* Black-box entry subcircuit for gf180mcu_fd_sc_mcu7t5v0__oai31_1 abstract view
.subckt gf180mcu_fd_sc_mcu7t5v0__oai31_1 A1 A2 A3 B ZN VDD VSS
.ends

* Black-box entry subcircuit for gf180mcu_fd_sc_mcu7t5v0__dffq_1 abstract view
.subckt gf180mcu_fd_sc_mcu7t5v0__dffq_1 D CLK Q VDD VSS
.ends

* Black-box entry subcircuit for gf180mcu_fd_sc_mcu7t5v0__aoi221_1 abstract view
.subckt gf180mcu_fd_sc_mcu7t5v0__aoi221_1 A1 A2 B1 B2 C ZN VDD VSS
.ends

* Black-box entry subcircuit for gf180mcu_fd_sc_mcu7t5v0__nor3_2 abstract view
.subckt gf180mcu_fd_sc_mcu7t5v0__nor3_2 A1 A2 A3 ZN VDD VSS
.ends

* Black-box entry subcircuit for gf180mcu_fd_sc_mcu7t5v0__xnor3_1 abstract view
.subckt gf180mcu_fd_sc_mcu7t5v0__xnor3_1 A1 A2 A3 ZN VDD VSS
.ends

* Black-box entry subcircuit for gf180mcu_fd_sc_mcu7t5v0__or2_1 abstract view
.subckt gf180mcu_fd_sc_mcu7t5v0__or2_1 A1 A2 Z VDD VSS
.ends

* Black-box entry subcircuit for gf180mcu_fd_sc_mcu7t5v0__aoi22_2 abstract view
.subckt gf180mcu_fd_sc_mcu7t5v0__aoi22_2 A1 A2 B1 B2 ZN VDD VSS
.ends

* Black-box entry subcircuit for gf180mcu_fd_sc_mcu7t5v0__and4_1 abstract view
.subckt gf180mcu_fd_sc_mcu7t5v0__and4_1 A1 A2 A3 A4 Z VDD VSS
.ends

* Black-box entry subcircuit for gf180mcu_fd_sc_mcu7t5v0__oai22_1 abstract view
.subckt gf180mcu_fd_sc_mcu7t5v0__oai22_1 A1 A2 B1 B2 ZN VDD VSS
.ends

* Black-box entry subcircuit for gf180mcu_fd_sc_mcu7t5v0__oai21_2 abstract view
.subckt gf180mcu_fd_sc_mcu7t5v0__oai21_2 A1 A2 B ZN VDD VSS
.ends

* Black-box entry subcircuit for gf180mcu_fd_sc_mcu7t5v0__nand4_2 abstract view
.subckt gf180mcu_fd_sc_mcu7t5v0__nand4_2 A1 A2 A3 A4 ZN VDD VSS
.ends

* Black-box entry subcircuit for gf180mcu_fd_sc_mcu7t5v0__nand3_2 abstract view
.subckt gf180mcu_fd_sc_mcu7t5v0__nand3_2 A1 A2 A3 ZN VDD VSS
.ends

* Black-box entry subcircuit for gf180mcu_fd_sc_mcu7t5v0__and2_1 abstract view
.subckt gf180mcu_fd_sc_mcu7t5v0__and2_1 A1 A2 Z VDD VSS
.ends

* Black-box entry subcircuit for gf180mcu_fd_sc_mcu7t5v0__clkinv_1 abstract view
.subckt gf180mcu_fd_sc_mcu7t5v0__clkinv_1 I ZN VDD VSS
.ends

* Black-box entry subcircuit for gf180mcu_fd_sc_mcu7t5v0__oai221_1 abstract view
.subckt gf180mcu_fd_sc_mcu7t5v0__oai221_1 A1 A2 B1 B2 C ZN VDD VSS
.ends

* Black-box entry subcircuit for gf180mcu_fd_sc_mcu7t5v0__mux2_2 abstract view
.subckt gf180mcu_fd_sc_mcu7t5v0__mux2_2 I0 I1 S Z VDD VSS
.ends

* Black-box entry subcircuit for gf180mcu_fd_sc_mcu7t5v0__xnor2_1 abstract view
.subckt gf180mcu_fd_sc_mcu7t5v0__xnor2_1 A1 A2 ZN VDD VSS
.ends

* Black-box entry subcircuit for gf180mcu_fd_sc_mcu7t5v0__nand2_2 abstract view
.subckt gf180mcu_fd_sc_mcu7t5v0__nand2_2 A1 A2 ZN VDD VSS
.ends

* Black-box entry subcircuit for gf180mcu_fd_sc_mcu7t5v0__aoi221_4 abstract view
.subckt gf180mcu_fd_sc_mcu7t5v0__aoi221_4 A1 A2 B1 B2 C ZN VDD VSS
.ends

* Black-box entry subcircuit for gf180mcu_fd_sc_mcu7t5v0__clkbuf_3 abstract view
.subckt gf180mcu_fd_sc_mcu7t5v0__clkbuf_3 I Z VDD VSS
.ends

* Black-box entry subcircuit for gf180mcu_fd_sc_mcu7t5v0__endcap abstract view
.subckt gf180mcu_fd_sc_mcu7t5v0__endcap VDD VSS
.ends

* Black-box entry subcircuit for gf180mcu_fd_sc_mcu7t5v0__aoi222_2 abstract view
.subckt gf180mcu_fd_sc_mcu7t5v0__aoi222_2 A1 A2 B1 B2 C1 C2 ZN VDD VSS
.ends

* Black-box entry subcircuit for gf180mcu_fd_sc_mcu7t5v0__nor3_1 abstract view
.subckt gf180mcu_fd_sc_mcu7t5v0__nor3_1 A1 A2 A3 ZN VDD VSS
.ends

* Black-box entry subcircuit for gf180mcu_fd_sc_mcu7t5v0__aoi221_2 abstract view
.subckt gf180mcu_fd_sc_mcu7t5v0__aoi221_2 A1 A2 B1 B2 C ZN VDD VSS
.ends

* Black-box entry subcircuit for gf180mcu_fd_sc_mcu7t5v0__mux4_2 abstract view
.subckt gf180mcu_fd_sc_mcu7t5v0__mux4_2 I0 I1 I2 I3 S0 S1 Z VDD VSS
.ends

* Black-box entry subcircuit for gf180mcu_fd_sc_mcu7t5v0__nor4_2 abstract view
.subckt gf180mcu_fd_sc_mcu7t5v0__nor4_2 A1 A2 A3 A4 ZN VDD VSS
.ends

* Black-box entry subcircuit for gf180mcu_fd_sc_mcu7t5v0__aoi211_2 abstract view
.subckt gf180mcu_fd_sc_mcu7t5v0__aoi211_2 A1 A2 B C ZN VDD VSS
.ends

* Black-box entry subcircuit for gf180mcu_fd_sc_mcu7t5v0__aoi211_1 abstract view
.subckt gf180mcu_fd_sc_mcu7t5v0__aoi211_1 A1 A2 B C ZN VDD VSS
.ends

* Black-box entry subcircuit for gf180mcu_fd_sc_mcu7t5v0__or3_1 abstract view
.subckt gf180mcu_fd_sc_mcu7t5v0__or3_1 A1 A2 A3 Z VDD VSS
.ends

* Black-box entry subcircuit for gf180mcu_fd_sc_mcu7t5v0__nor4_4 abstract view
.subckt gf180mcu_fd_sc_mcu7t5v0__nor4_4 A1 A2 A3 A4 ZN VDD VSS
.ends

* Black-box entry subcircuit for gf180mcu_fd_sc_mcu7t5v0__xor3_1 abstract view
.subckt gf180mcu_fd_sc_mcu7t5v0__xor3_1 A1 A2 A3 Z VDD VSS
.ends

* Black-box entry subcircuit for gf180mcu_fd_sc_mcu7t5v0__nor4_1 abstract view
.subckt gf180mcu_fd_sc_mcu7t5v0__nor4_1 A1 A2 A3 A4 ZN VDD VSS
.ends

* Black-box entry subcircuit for gf180mcu_fd_sc_mcu7t5v0__oai211_2 abstract view
.subckt gf180mcu_fd_sc_mcu7t5v0__oai211_2 A1 A2 B C ZN VDD VSS
.ends

* Black-box entry subcircuit for gf180mcu_fd_sc_mcu7t5v0__clkbuf_8 abstract view
.subckt gf180mcu_fd_sc_mcu7t5v0__clkbuf_8 I Z VDD VSS
.ends

* Black-box entry subcircuit for gf180mcu_fd_sc_mcu7t5v0__aoi21_2 abstract view
.subckt gf180mcu_fd_sc_mcu7t5v0__aoi21_2 A1 A2 B ZN VDD VSS
.ends

* Black-box entry subcircuit for gf180mcu_fd_sc_mcu7t5v0__oai221_2 abstract view
.subckt gf180mcu_fd_sc_mcu7t5v0__oai221_2 A1 A2 B1 B2 C ZN VDD VSS
.ends

* Black-box entry subcircuit for gf180mcu_fd_sc_mcu7t5v0__oai32_1 abstract view
.subckt gf180mcu_fd_sc_mcu7t5v0__oai32_1 A1 A2 A3 B1 B2 ZN VDD VSS
.ends

* Black-box entry subcircuit for gf180mcu_fd_sc_mcu7t5v0__dffq_2 abstract view
.subckt gf180mcu_fd_sc_mcu7t5v0__dffq_2 D CLK Q VDD VSS
.ends

* Black-box entry subcircuit for gf180mcu_fd_sc_mcu7t5v0__inv_1 abstract view
.subckt gf180mcu_fd_sc_mcu7t5v0__inv_1 I ZN VDD VSS
.ends

* Black-box entry subcircuit for gf180mcu_fd_sc_mcu7t5v0__oai22_4 abstract view
.subckt gf180mcu_fd_sc_mcu7t5v0__oai22_4 A1 A2 B1 B2 ZN VDD VSS
.ends

* Black-box entry subcircuit for gf180mcu_fd_sc_mcu7t5v0__oai31_2 abstract view
.subckt gf180mcu_fd_sc_mcu7t5v0__oai31_2 A1 A2 A3 B ZN VDD VSS
.ends

* Black-box entry subcircuit for gf180mcu_fd_sc_mcu7t5v0__oai22_2 abstract view
.subckt gf180mcu_fd_sc_mcu7t5v0__oai22_2 A1 A2 B1 B2 ZN VDD VSS
.ends

* Black-box entry subcircuit for gf180mcu_fd_sc_mcu7t5v0__inv_2 abstract view
.subckt gf180mcu_fd_sc_mcu7t5v0__inv_2 I ZN VDD VSS
.ends

* Black-box entry subcircuit for gf180mcu_fd_sc_mcu7t5v0__buf_2 abstract view
.subckt gf180mcu_fd_sc_mcu7t5v0__buf_2 I Z VDD VSS
.ends

* Black-box entry subcircuit for gf180mcu_fd_sc_mcu7t5v0__oai222_1 abstract view
.subckt gf180mcu_fd_sc_mcu7t5v0__oai222_1 A1 A2 B1 B2 C1 C2 ZN VDD VSS
.ends

* Black-box entry subcircuit for gf180mcu_fd_sc_mcu7t5v0__aoi222_1 abstract view
.subckt gf180mcu_fd_sc_mcu7t5v0__aoi222_1 A1 A2 B1 B2 C1 C2 ZN VDD VSS
.ends

* Black-box entry subcircuit for gf180mcu_fd_sc_mcu7t5v0__nand4_4 abstract view
.subckt gf180mcu_fd_sc_mcu7t5v0__nand4_4 A1 A2 A3 A4 ZN VDD VSS
.ends

* Black-box entry subcircuit for gf180mcu_fd_sc_mcu7t5v0__dlyb_1 abstract view
.subckt gf180mcu_fd_sc_mcu7t5v0__dlyb_1 I Z VDD VSS
.ends

* Black-box entry subcircuit for gf180mcu_fd_sc_mcu7t5v0__clkinv_2 abstract view
.subckt gf180mcu_fd_sc_mcu7t5v0__clkinv_2 I ZN VDD VSS
.ends

* Black-box entry subcircuit for gf180mcu_fd_sc_mcu7t5v0__or4_1 abstract view
.subckt gf180mcu_fd_sc_mcu7t5v0__or4_1 A1 A2 A3 A4 Z VDD VSS
.ends

* Black-box entry subcircuit for gf180mcu_fd_sc_mcu7t5v0__aoi211_4 abstract view
.subckt gf180mcu_fd_sc_mcu7t5v0__aoi211_4 A1 A2 B C ZN VDD VSS
.ends

* Black-box entry subcircuit for gf180mcu_fd_sc_mcu7t5v0__tieh abstract view
.subckt gf180mcu_fd_sc_mcu7t5v0__tieh Z VDD VSS
.ends

* Black-box entry subcircuit for gf180mcu_fd_sc_mcu7t5v0__tiel abstract view
.subckt gf180mcu_fd_sc_mcu7t5v0__tiel ZN VDD VSS
.ends

* Black-box entry subcircuit for gf180mcu_fd_sc_mcu7t5v0__dlyc_1 abstract view
.subckt gf180mcu_fd_sc_mcu7t5v0__dlyc_1 I Z VDD VSS
.ends

* Black-box entry subcircuit for gf180mcu_fd_sc_mcu7t5v0__mux4_1 abstract view
.subckt gf180mcu_fd_sc_mcu7t5v0__mux4_1 I0 I1 I2 I3 S0 S1 Z VDD VSS
.ends

* Black-box entry subcircuit for gf180mcu_fd_sc_mcu7t5v0__and2_2 abstract view
.subckt gf180mcu_fd_sc_mcu7t5v0__and2_2 A1 A2 Z VDD VSS
.ends

* Black-box entry subcircuit for gf180mcu_fd_sc_mcu7t5v0__xor2_2 abstract view
.subckt gf180mcu_fd_sc_mcu7t5v0__xor2_2 A1 A2 Z VDD VSS
.ends

* Black-box entry subcircuit for gf180mcu_fd_sc_mcu7t5v0__dlyd_1 abstract view
.subckt gf180mcu_fd_sc_mcu7t5v0__dlyd_1 I Z VDD VSS
.ends

* Black-box entry subcircuit for gf180mcu_fd_sc_mcu7t5v0__oai33_1 abstract view
.subckt gf180mcu_fd_sc_mcu7t5v0__oai33_1 A1 A2 A3 B1 B2 B3 ZN VDD VSS
.ends

* Black-box entry subcircuit for gf180mcu_fd_sc_mcu7t5v0__oai221_4 abstract view
.subckt gf180mcu_fd_sc_mcu7t5v0__oai221_4 A1 A2 B1 B2 C ZN VDD VSS
.ends

.subckt wrapped_as2650 io_in[0] io_in[10] io_in[11] io_in[12] io_in[13] io_in[14]
+ io_in[15] io_in[16] io_in[17] io_in[18] io_in[19] io_in[1] io_in[20] io_in[21] io_in[22]
+ io_in[23] io_in[24] io_in[25] io_in[26] io_in[27] io_in[28] io_in[29] io_in[2] io_in[30]
+ io_in[31] io_in[32] io_in[33] io_in[34] io_in[35] io_in[36] io_in[37] io_in[3] io_in[4]
+ io_in[5] io_in[6] io_in[7] io_in[8] io_in[9] io_oeb[0] io_oeb[10] io_oeb[11] io_oeb[12]
+ io_oeb[13] io_oeb[14] io_oeb[15] io_oeb[16] io_oeb[17] io_oeb[18] io_oeb[19] io_oeb[1]
+ io_oeb[20] io_oeb[21] io_oeb[22] io_oeb[23] io_oeb[24] io_oeb[25] io_oeb[26] io_oeb[27]
+ io_oeb[28] io_oeb[29] io_oeb[2] io_oeb[30] io_oeb[31] io_oeb[32] io_oeb[33] io_oeb[34]
+ io_oeb[35] io_oeb[36] io_oeb[37] io_oeb[3] io_oeb[4] io_oeb[5] io_oeb[6] io_oeb[7]
+ io_oeb[8] io_oeb[9] io_out[0] io_out[10] io_out[11] io_out[12] io_out[13] io_out[14]
+ io_out[15] io_out[16] io_out[17] io_out[18] io_out[19] io_out[1] io_out[20] io_out[21]
+ io_out[22] io_out[23] io_out[24] io_out[25] io_out[26] io_out[27] io_out[28] io_out[29]
+ io_out[2] io_out[30] io_out[31] io_out[32] io_out[33] io_out[34] io_out[35] io_out[36]
+ io_out[37] io_out[3] io_out[4] io_out[5] io_out[6] io_out[7] io_out[8] io_out[9]
+ vdd vss wb_clk_i
XFILLER_95_851 vdd vss gf180mcu_fd_sc_mcu7t5v0__fill_1
XFILLER_41_1227 vdd vss gf180mcu_fd_sc_mcu7t5v0__fill_1
XFILLER_67_542 vdd vss gf180mcu_fd_sc_mcu7t5v0__fill_2
XANTENNA__7406__A1 _0910_ vdd vss gf180mcu_fd_sc_mcu7t5v0__antenna
XANTENNA__6209__A2 _1232_ vdd vss gf180mcu_fd_sc_mcu7t5v0__antenna
XFILLER_132_1355 vdd vss gf180mcu_fd_sc_mcu7t5v0__fill_2
XFILLER_80_1298 vdd vss gf180mcu_fd_sc_mcu7t5v0__fillcap_4
XFILLER_55_715 vdd vss gf180mcu_fd_sc_mcu7t5v0__fill_2
XFILLER_95_895 vdd vss gf180mcu_fd_sc_mcu7t5v0__fillcap_4
XFILLER_27_428 vdd vss gf180mcu_fd_sc_mcu7t5v0__fillcap_16
XFILLER_55_737 vdd vss gf180mcu_fd_sc_mcu7t5v0__fill_2
XFILLER_67_597 vdd vss gf180mcu_fd_sc_mcu7t5v0__fill_2
XFILLER_54_214 vdd vss gf180mcu_fd_sc_mcu7t5v0__fill_2
XFILLER_55_748 vdd vss gf180mcu_fd_sc_mcu7t5v0__fillcap_16
XFILLER_82_523 vdd vss gf180mcu_fd_sc_mcu7t5v0__fill_2
XFILLER_54_225 vdd vss gf180mcu_fd_sc_mcu7t5v0__fill_2
XFILLER_82_534 vdd vss gf180mcu_fd_sc_mcu7t5v0__fill_1
X_7963_ _1517_ _3088_ vdd vss gf180mcu_fd_sc_mcu7t5v0__buf_1
XFILLER_54_247 vdd vss gf180mcu_fd_sc_mcu7t5v0__fill_1
XFILLER_82_556 vdd vss gf180mcu_fd_sc_mcu7t5v0__fill_2
XFILLER_82_567 vdd vss gf180mcu_fd_sc_mcu7t5v0__fill_2
XANTENNA__6425__I _1005_ vdd vss gf180mcu_fd_sc_mcu7t5v0__antenna
X_6914_ _2105_ _2120_ _2121_ _2122_ vdd vss gf180mcu_fd_sc_mcu7t5v0__aoi21_1
X_7894_ as2650.addr_buff\[0\] as2650.addr_buff\[1\] as2650.addr_buff\[2\] _3021_ vdd
+ vss gf180mcu_fd_sc_mcu7t5v0__and3_1
XFILLER_39_1134 vdd vss gf180mcu_fd_sc_mcu7t5v0__fill_2
XANTENNA__4640__A1 _4212_ vdd vss gf180mcu_fd_sc_mcu7t5v0__antenna
XFILLER_51_932 vdd vss gf180mcu_fd_sc_mcu7t5v0__fillcap_8
XFILLER_35_494 vdd vss gf180mcu_fd_sc_mcu7t5v0__fill_2
X_6845_ _2030_ _2043_ _2056_ vdd vss gf180mcu_fd_sc_mcu7t5v0__nand2_1
XFILLER_52_18 vdd vss gf180mcu_fd_sc_mcu7t5v0__fill_2
XANTENNA__8382__A2 _2215_ vdd vss gf180mcu_fd_sc_mcu7t5v0__antenna
XFILLER_52_1301 vdd vss gf180mcu_fd_sc_mcu7t5v0__fill_2
X_6776_ _1958_ _1974_ _1988_ _1989_ vdd vss gf180mcu_fd_sc_mcu7t5v0__oai21_1
XANTENNA__6393__A1 _0985_ vdd vss gf180mcu_fd_sc_mcu7t5v0__antenna
XFILLER_52_1312 vdd vss gf180mcu_fd_sc_mcu7t5v0__fill_1
XFILLER_108_1560 vdd vss gf180mcu_fd_sc_mcu7t5v0__fillcap_16
XFILLER_104_1402 vdd vss gf180mcu_fd_sc_mcu7t5v0__fillcap_16
X_8515_ _2899_ _3610_ _3611_ vdd vss gf180mcu_fd_sc_mcu7t5v0__xor2_1
XFILLER_52_1345 vdd vss gf180mcu_fd_sc_mcu7t5v0__fill_2
X_5727_ as2650.stack\[6\]\[14\] _0962_ _1017_ vdd vss gf180mcu_fd_sc_mcu7t5v0__nor2_1
XFILLER_109_706 vdd vss gf180mcu_fd_sc_mcu7t5v0__fillcap_4
XANTENNA__4943__A2 _4140_ vdd vss gf180mcu_fd_sc_mcu7t5v0__antenna
XFILLER_104_1435 vdd vss gf180mcu_fd_sc_mcu7t5v0__fill_2
XFILLER_109_728 vdd vss gf180mcu_fd_sc_mcu7t5v0__fillcap_8
XFILLER_52_1378 vdd vss gf180mcu_fd_sc_mcu7t5v0__fill_2
XFILLER_104_1457 vdd vss gf180mcu_fd_sc_mcu7t5v0__fill_1
X_8446_ _3164_ _3536_ _3543_ _3544_ vdd vss gf180mcu_fd_sc_mcu7t5v0__aoi21_1
X_5658_ _0953_ _0903_ _0954_ _0955_ vdd vss gf180mcu_fd_sc_mcu7t5v0__oai21_1
XANTENNA__6696__A2 _1909_ vdd vss gf180mcu_fd_sc_mcu7t5v0__antenna
X_4609_ as2650.ins_reg\[2\] as2650.ins_reg\[3\] _4190_ vdd vss gf180mcu_fd_sc_mcu7t5v0__nor2_2
X_8377_ _2482_ _2354_ _3473_ _3476_ _3477_ vdd vss gf180mcu_fd_sc_mcu7t5v0__nand4_1
XFILLER_102_1170 vdd vss gf180mcu_fd_sc_mcu7t5v0__fill_1
XFILLER_123_208 vdd vss gf180mcu_fd_sc_mcu7t5v0__fill_2
X_5589_ _4251_ _0893_ vdd vss gf180mcu_fd_sc_mcu7t5v0__clkbuf_2
XFILLER_11_1064 vdd vss gf180mcu_fd_sc_mcu7t5v0__fill_1
XFILLER_117_772 vdd vss gf180mcu_fd_sc_mcu7t5v0__fill_2
XFILLER_117_783 vdd vss gf180mcu_fd_sc_mcu7t5v0__fillcap_8
XFILLER_85_1132 vdd vss gf180mcu_fd_sc_mcu7t5v0__fill_1
X_7328_ _1308_ _2467_ vdd vss gf180mcu_fd_sc_mcu7t5v0__clkbuf_1
XFILLER_2_527 vdd vss gf180mcu_fd_sc_mcu7t5v0__fillcap_4
XFILLER_89_100 vdd vss gf180mcu_fd_sc_mcu7t5v0__fill_2
XFILLER_46_1105 vdd vss gf180mcu_fd_sc_mcu7t5v0__fill_2
XFILLER_85_1154 vdd vss gf180mcu_fd_sc_mcu7t5v0__fill_2
XFILLER_131_230 vdd vss gf180mcu_fd_sc_mcu7t5v0__fill_2
XFILLER_132_764 vdd vss gf180mcu_fd_sc_mcu7t5v0__fillcap_32
XANTENNA__7205__B _2354_ vdd vss gf180mcu_fd_sc_mcu7t5v0__antenna
XANTENNA__8087__I _3170_ vdd vss gf180mcu_fd_sc_mcu7t5v0__antenna
XFILLER_77_26 vdd vss gf180mcu_fd_sc_mcu7t5v0__fillcap_4
XFILLER_78_818 vdd vss gf180mcu_fd_sc_mcu7t5v0__fill_1
XFILLER_89_144 vdd vss gf180mcu_fd_sc_mcu7t5v0__fillcap_4
XFILLER_137_1266 vdd vss gf180mcu_fd_sc_mcu7t5v0__fillcap_8
XFILLER_105_989 vdd vss gf180mcu_fd_sc_mcu7t5v0__fillcap_4
X_7259_ _1319_ _1347_ _2400_ vdd vss gf180mcu_fd_sc_mcu7t5v0__nor2_2
XFILLER_46_1149 vdd vss gf180mcu_fd_sc_mcu7t5v0__fill_2
XFILLER_78_829 vdd vss gf180mcu_fd_sc_mcu7t5v0__fill_2
XFILLER_89_166 vdd vss gf180mcu_fd_sc_mcu7t5v0__fill_2
XFILLER_77_317 vdd vss gf180mcu_fd_sc_mcu7t5v0__fill_1
XFILLER_77_59 vdd vss gf180mcu_fd_sc_mcu7t5v0__fillcap_8
XFILLER_63_1463 vdd vss gf180mcu_fd_sc_mcu7t5v0__fill_2
XFILLER_58_542 vdd vss gf180mcu_fd_sc_mcu7t5v0__fillcap_4
XFILLER_115_1564 vdd vss gf180mcu_fd_sc_mcu7t5v0__fillcap_16
XFILLER_19_918 vdd vss gf180mcu_fd_sc_mcu7t5v0__fillcap_4
XTAP_3202 vdd vss gf180mcu_fd_sc_mcu7t5v0__filltie
XFILLER_111_1417 vdd vss gf180mcu_fd_sc_mcu7t5v0__fill_2
XTAP_3213 vdd vss gf180mcu_fd_sc_mcu7t5v0__filltie
XTAP_3224 vdd vss gf180mcu_fd_sc_mcu7t5v0__filltie
XANTENNA__7948__A2 _2444_ vdd vss gf180mcu_fd_sc_mcu7t5v0__antenna
XTAP_3235 vdd vss gf180mcu_fd_sc_mcu7t5v0__filltie
XFILLER_58_597 vdd vss gf180mcu_fd_sc_mcu7t5v0__fill_2
XTAP_2501 vdd vss gf180mcu_fd_sc_mcu7t5v0__filltie
XFILLER_85_394 vdd vss gf180mcu_fd_sc_mcu7t5v0__fill_2
XTAP_3246 vdd vss gf180mcu_fd_sc_mcu7t5v0__filltie
XFILLER_45_236 vdd vss gf180mcu_fd_sc_mcu7t5v0__fill_2
XFILLER_46_759 vdd vss gf180mcu_fd_sc_mcu7t5v0__fill_1
XFILLER_73_545 vdd vss gf180mcu_fd_sc_mcu7t5v0__fill_1
XANTENNA_output37_I net37 vdd vss gf180mcu_fd_sc_mcu7t5v0__antenna
XTAP_3257 vdd vss gf180mcu_fd_sc_mcu7t5v0__filltie
XTAP_2512 vdd vss gf180mcu_fd_sc_mcu7t5v0__filltie
XFILLER_93_58 vdd vss gf180mcu_fd_sc_mcu7t5v0__fillcap_4
XTAP_3268 vdd vss gf180mcu_fd_sc_mcu7t5v0__filltie
XTAP_2523 vdd vss gf180mcu_fd_sc_mcu7t5v0__filltie
XTAP_3279 vdd vss gf180mcu_fd_sc_mcu7t5v0__filltie
XTAP_2534 vdd vss gf180mcu_fd_sc_mcu7t5v0__filltie
XTAP_2545 vdd vss gf180mcu_fd_sc_mcu7t5v0__filltie
XANTENNA__6620__A2 _1781_ vdd vss gf180mcu_fd_sc_mcu7t5v0__antenna
XTAP_1800 vdd vss gf180mcu_fd_sc_mcu7t5v0__filltie
XTAP_2556 vdd vss gf180mcu_fd_sc_mcu7t5v0__filltie
XFILLER_60_206 vdd vss gf180mcu_fd_sc_mcu7t5v0__fill_1
XTAP_1811 vdd vss gf180mcu_fd_sc_mcu7t5v0__filltie
XFILLER_73_589 vdd vss gf180mcu_fd_sc_mcu7t5v0__fillcap_16
XANTENNA__4631__A1 _4206_ vdd vss gf180mcu_fd_sc_mcu7t5v0__antenna
XTAP_1822 vdd vss gf180mcu_fd_sc_mcu7t5v0__filltie
XTAP_2567 vdd vss gf180mcu_fd_sc_mcu7t5v0__filltie
XFILLER_2_1298 vdd vss gf180mcu_fd_sc_mcu7t5v0__fillcap_8
XTAP_2578 vdd vss gf180mcu_fd_sc_mcu7t5v0__filltie
XFILLER_54_792 vdd vss gf180mcu_fd_sc_mcu7t5v0__fillcap_16
XFILLER_57_1245 vdd vss gf180mcu_fd_sc_mcu7t5v0__fill_2
XTAP_1833 vdd vss gf180mcu_fd_sc_mcu7t5v0__filltie
XTAP_2589 vdd vss gf180mcu_fd_sc_mcu7t5v0__filltie
XTAP_1844 vdd vss gf180mcu_fd_sc_mcu7t5v0__filltie
XTAP_1855 vdd vss gf180mcu_fd_sc_mcu7t5v0__filltie
XFILLER_57_1267 vdd vss gf180mcu_fd_sc_mcu7t5v0__fill_1
XTAP_1866 vdd vss gf180mcu_fd_sc_mcu7t5v0__filltie
XANTENNA__8373__A2 _3464_ vdd vss gf180mcu_fd_sc_mcu7t5v0__antenna
XFILLER_53_1109 vdd vss gf180mcu_fd_sc_mcu7t5v0__fill_2
XFILLER_144_1237 vdd vss gf180mcu_fd_sc_mcu7t5v0__fillcap_4
XFILLER_13_144 vdd vss gf180mcu_fd_sc_mcu7t5v0__fillcap_64
XFILLER_41_453 vdd vss gf180mcu_fd_sc_mcu7t5v0__fill_2
XTAP_1877 vdd vss gf180mcu_fd_sc_mcu7t5v0__filltie
XFILLER_70_1401 vdd vss gf180mcu_fd_sc_mcu7t5v0__fill_2
XTAP_1888 vdd vss gf180mcu_fd_sc_mcu7t5v0__filltie
XTAP_1899 vdd vss gf180mcu_fd_sc_mcu7t5v0__filltie
XFILLER_144_1259 vdd vss gf180mcu_fd_sc_mcu7t5v0__fill_1
XFILLER_41_486 vdd vss gf180mcu_fd_sc_mcu7t5v0__fill_1
XFILLER_9_137 vdd vss gf180mcu_fd_sc_mcu7t5v0__fillcap_4
XANTENNA__4934__A2 _4306_ vdd vss gf180mcu_fd_sc_mcu7t5v0__antenna
XFILLER_107_1081 vdd vss gf180mcu_fd_sc_mcu7t5v0__fill_2
XFILLER_139_374 vdd vss gf180mcu_fd_sc_mcu7t5v0__fillcap_16
XFILLER_6_811 vdd vss gf180mcu_fd_sc_mcu7t5v0__fillcap_4
XANTENNA__6136__A1 _1399_ vdd vss gf180mcu_fd_sc_mcu7t5v0__antenna
XFILLER_127_547 vdd vss gf180mcu_fd_sc_mcu7t5v0__fillcap_4
XANTENNA__7884__A1 _2521_ vdd vss gf180mcu_fd_sc_mcu7t5v0__antenna
XFILLER_108_761 vdd vss gf180mcu_fd_sc_mcu7t5v0__fill_1
XFILLER_5_354 vdd vss gf180mcu_fd_sc_mcu7t5v0__fill_1
XANTENNA__4698__A1 _4277_ vdd vss gf180mcu_fd_sc_mcu7t5v0__antenna
XFILLER_107_271 vdd vss gf180mcu_fd_sc_mcu7t5v0__fill_2
XFILLER_107_282 vdd vss gf180mcu_fd_sc_mcu7t5v0__fill_2
XFILLER_64_1205 vdd vss gf180mcu_fd_sc_mcu7t5v0__fill_2
XANTENNA__7636__A1 _2197_ vdd vss gf180mcu_fd_sc_mcu7t5v0__antenna
XFILLER_111_904 vdd vss gf180mcu_fd_sc_mcu7t5v0__fillcap_16
XFILLER_9_1419 vdd vss gf180mcu_fd_sc_mcu7t5v0__fill_1
XANTENNA__6439__A2 _4431_ vdd vss gf180mcu_fd_sc_mcu7t5v0__antenna
XFILLER_123_764 vdd vss gf180mcu_fd_sc_mcu7t5v0__fill_2
XANTENNA__5414__I _0719_ vdd vss gf180mcu_fd_sc_mcu7t5v0__antenna
XFILLER_95_103 vdd vss gf180mcu_fd_sc_mcu7t5v0__fill_1
XFILLER_96_637 vdd vss gf180mcu_fd_sc_mcu7t5v0__fillcap_16
XFILLER_122_296 vdd vss gf180mcu_fd_sc_mcu7t5v0__fillcap_16
XFILLER_27_1060 vdd vss gf180mcu_fd_sc_mcu7t5v0__fillcap_4
XANTENNA__5111__A2 _0419_ vdd vss gf180mcu_fd_sc_mcu7t5v0__antenna
XFILLER_49_542 vdd vss gf180mcu_fd_sc_mcu7t5v0__fill_1
XFILLER_49_553 vdd vss gf180mcu_fd_sc_mcu7t5v0__fill_1
XFILLER_49_564 vdd vss gf180mcu_fd_sc_mcu7t5v0__fillcap_4
XANTENNA__7769__C _2502_ vdd vss gf180mcu_fd_sc_mcu7t5v0__antenna
XFILLER_114_1063 vdd vss gf180mcu_fd_sc_mcu7t5v0__fillcap_8
XFILLER_97_1003 vdd vss gf180mcu_fd_sc_mcu7t5v0__fillcap_32
Xclkbuf_leaf_60_wb_clk_i clknet_3_5_0_wb_clk_i clknet_leaf_60_wb_clk_i vdd vss gf180mcu_fd_sc_mcu7t5v0__clkbuf_16
XFILLER_67_92 vdd vss gf180mcu_fd_sc_mcu7t5v0__fill_2
XANTENNA__7939__A2 _3056_ vdd vss gf180mcu_fd_sc_mcu7t5v0__antenna
XFILLER_37_737 vdd vss gf180mcu_fd_sc_mcu7t5v0__fill_2
XFILLER_64_523 vdd vss gf180mcu_fd_sc_mcu7t5v0__fillcap_8
XANTENNA__8061__A1 _1677_ vdd vss gf180mcu_fd_sc_mcu7t5v0__antenna
XFILLER_64_534 vdd vss gf180mcu_fd_sc_mcu7t5v0__fillcap_32
XFILLER_36_247 vdd vss gf180mcu_fd_sc_mcu7t5v0__fill_1
XFILLER_64_578 vdd vss gf180mcu_fd_sc_mcu7t5v0__fill_2
X_4960_ _4364_ _4514_ _4539_ _4363_ _4540_ vdd vss gf180mcu_fd_sc_mcu7t5v0__oai211_1
XFILLER_52_729 vdd vss gf180mcu_fd_sc_mcu7t5v0__fillcap_8
XFILLER_45_770 vdd vss gf180mcu_fd_sc_mcu7t5v0__fill_2
XFILLER_79_1481 vdd vss gf180mcu_fd_sc_mcu7t5v0__fill_2
XFILLER_83_80 vdd vss gf180mcu_fd_sc_mcu7t5v0__fill_2
XFILLER_33_943 vdd vss gf180mcu_fd_sc_mcu7t5v0__fill_1
X_4891_ _4455_ _4462_ _4471_ _4472_ vdd vss gf180mcu_fd_sc_mcu7t5v0__nand3_1
XFILLER_36_1318 vdd vss gf180mcu_fd_sc_mcu7t5v0__fill_2
XFILLER_60_751 vdd vss gf180mcu_fd_sc_mcu7t5v0__fill_2
XANTENNA__8364__A2 _2698_ vdd vss gf180mcu_fd_sc_mcu7t5v0__antenna
XFILLER_71_1209 vdd vss gf180mcu_fd_sc_mcu7t5v0__fill_1
X_6630_ _1795_ _1859_ _1860_ vdd vss gf180mcu_fd_sc_mcu7t5v0__nor2_1
XFILLER_60_762 vdd vss gf180mcu_fd_sc_mcu7t5v0__fill_2
XFILLER_60_773 vdd vss gf180mcu_fd_sc_mcu7t5v0__fill_2
XANTENNA__6375__A1 _1576_ vdd vss gf180mcu_fd_sc_mcu7t5v0__antenna
XFILLER_60_795 vdd vss gf180mcu_fd_sc_mcu7t5v0__fillcap_16
XFILLER_34_1031 vdd vss gf180mcu_fd_sc_mcu7t5v0__fillcap_8
XFILLER_80_2 vdd vss gf180mcu_fd_sc_mcu7t5v0__fillcap_32
X_6561_ as2650.r123_2\[1\]\[4\] _1719_ _1741_ _1792_ _1793_ vdd vss gf180mcu_fd_sc_mcu7t5v0__aoi22_1
XANTENNA__8116__A2 _1493_ vdd vss gf180mcu_fd_sc_mcu7t5v0__antenna
X_8300_ _2581_ _4380_ _3402_ vdd vss gf180mcu_fd_sc_mcu7t5v0__nor2_1
XFILLER_121_1023 vdd vss gf180mcu_fd_sc_mcu7t5v0__fill_2
XFILLER_34_1075 vdd vss gf180mcu_fd_sc_mcu7t5v0__fill_1
X_5512_ _0804_ _0808_ _0812_ _0816_ _0817_ vdd vss gf180mcu_fd_sc_mcu7t5v0__oai31_1
X_9280_ _0173_ clknet_leaf_26_wb_clk_i net28 vdd vss gf180mcu_fd_sc_mcu7t5v0__dffq_1
XANTENNA__9305__CLK clknet_3_3_0_wb_clk_i vdd vss gf180mcu_fd_sc_mcu7t5v0__antenna
X_6492_ as2650.r123_2\[1\]\[0\] _1719_ _1724_ _1727_ _1728_ vdd vss gf180mcu_fd_sc_mcu7t5v0__aoi22_1
XFILLER_121_1067 vdd vss gf180mcu_fd_sc_mcu7t5v0__fill_1
X_8231_ _0910_ _2144_ _3334_ vdd vss gf180mcu_fd_sc_mcu7t5v0__xor2_1
XANTENNA__7875__A1 _1575_ vdd vss gf180mcu_fd_sc_mcu7t5v0__antenna
X_5443_ _0748_ _0749_ vdd vss gf180mcu_fd_sc_mcu7t5v0__buf_1
XANTENNA__6678__A2 _1905_ vdd vss gf180mcu_fd_sc_mcu7t5v0__antenna
XFILLER_69_1138 vdd vss gf180mcu_fd_sc_mcu7t5v0__fillcap_32
XFILLER_103_1490 vdd vss gf180mcu_fd_sc_mcu7t5v0__fill_1
XANTENNA__4689__A1 _4247_ vdd vss gf180mcu_fd_sc_mcu7t5v0__antenna
X_8162_ _1711_ _3266_ _3267_ vdd vss gf180mcu_fd_sc_mcu7t5v0__nand2_1
XFILLER_99_420 vdd vss gf180mcu_fd_sc_mcu7t5v0__fillcap_4
XANTENNA__5350__A2 _0653_ vdd vss gf180mcu_fd_sc_mcu7t5v0__antenna
X_5374_ _0680_ _0681_ vdd vss gf180mcu_fd_sc_mcu7t5v0__clkbuf_1
XFILLER_82_1305 vdd vss gf180mcu_fd_sc_mcu7t5v0__fill_2
XFILLER_99_442 vdd vss gf180mcu_fd_sc_mcu7t5v0__fillcap_32
X_7113_ _2278_ _2279_ vdd vss gf180mcu_fd_sc_mcu7t5v0__clkbuf_1
X_8093_ _3186_ _3204_ _1576_ _3205_ vdd vss gf180mcu_fd_sc_mcu7t5v0__aoi21_1
XFILLER_102_937 vdd vss gf180mcu_fd_sc_mcu7t5v0__fill_2
XFILLER_101_403 vdd vss gf180mcu_fd_sc_mcu7t5v0__fillcap_16
XFILLER_113_274 vdd vss gf180mcu_fd_sc_mcu7t5v0__fill_1
XFILLER_101_425 vdd vss gf180mcu_fd_sc_mcu7t5v0__fill_1
X_7044_ _2233_ _2234_ _0121_ vdd vss gf180mcu_fd_sc_mcu7t5v0__nor2_1
XFILLER_41_1013 vdd vss gf180mcu_fd_sc_mcu7t5v0__fill_2
XFILLER_45_1193 vdd vss gf180mcu_fd_sc_mcu7t5v0__fill_2
XFILLER_80_1073 vdd vss gf180mcu_fd_sc_mcu7t5v0__fill_1
XANTENNA__7679__C _2565_ vdd vss gf180mcu_fd_sc_mcu7t5v0__antenna
XFILLER_68_873 vdd vss gf180mcu_fd_sc_mcu7t5v0__fillcap_8
XFILLER_28_726 vdd vss gf180mcu_fd_sc_mcu7t5v0__fill_2
XANTENNA__8052__A1 _2535_ vdd vss gf180mcu_fd_sc_mcu7t5v0__antenna
XFILLER_55_534 vdd vss gf180mcu_fd_sc_mcu7t5v0__fillcap_4
XFILLER_103_35 vdd vss gf180mcu_fd_sc_mcu7t5v0__fill_2
XFILLER_83_854 vdd vss gf180mcu_fd_sc_mcu7t5v0__fill_1
XFILLER_55_556 vdd vss gf180mcu_fd_sc_mcu7t5v0__fill_2
X_8995_ _1287_ _4033_ _4034_ _0526_ _3199_ _4035_ vdd vss gf180mcu_fd_sc_mcu7t5v0__aoi221_1
XFILLER_103_57 vdd vss gf180mcu_fd_sc_mcu7t5v0__fill_2
XFILLER_55_578 vdd vss gf180mcu_fd_sc_mcu7t5v0__fillcap_4
XFILLER_83_887 vdd vss gf180mcu_fd_sc_mcu7t5v0__fill_2
X_7946_ _4237_ _2348_ _3070_ _3071_ vdd vss gf180mcu_fd_sc_mcu7t5v0__nor3_2
XFILLER_103_79 vdd vss gf180mcu_fd_sc_mcu7t5v0__fill_2
XTAP_1107 vdd vss gf180mcu_fd_sc_mcu7t5v0__filltie
XTAP_1118 vdd vss gf180mcu_fd_sc_mcu7t5v0__filltie
XFILLER_42_217 vdd vss gf180mcu_fd_sc_mcu7t5v0__fill_1
XTAP_1129 vdd vss gf180mcu_fd_sc_mcu7t5v0__filltie
XFILLER_58_1543 vdd vss gf180mcu_fd_sc_mcu7t5v0__fill_2
XFILLER_36_792 vdd vss gf180mcu_fd_sc_mcu7t5v0__fill_2
XFILLER_42_239 vdd vss gf180mcu_fd_sc_mcu7t5v0__fill_2
X_7877_ _2991_ _3004_ _3005_ vdd vss gf180mcu_fd_sc_mcu7t5v0__nand2_1
XANTENNA__5994__I _1267_ vdd vss gf180mcu_fd_sc_mcu7t5v0__antenna
XANTENNA__8355__A2 _3423_ vdd vss gf180mcu_fd_sc_mcu7t5v0__antenna
XFILLER_50_250 vdd vss gf180mcu_fd_sc_mcu7t5v0__fillcap_32
XFILLER_93_1489 vdd vss gf180mcu_fd_sc_mcu7t5v0__fill_2
X_6828_ _2035_ _2038_ _2039_ _2040_ vdd vss gf180mcu_fd_sc_mcu7t5v0__xnor3_1
XANTENNA__5169__A2 _4386_ vdd vss gf180mcu_fd_sc_mcu7t5v0__antenna
XFILLER_50_294 vdd vss gf180mcu_fd_sc_mcu7t5v0__fill_1
XANTENNA__4916__A2 _4414_ vdd vss gf180mcu_fd_sc_mcu7t5v0__antenna
X_6759_ _1964_ _1968_ _1972_ _1973_ vdd vss gf180mcu_fd_sc_mcu7t5v0__xnor3_1
XFILLER_17_1273 vdd vss gf180mcu_fd_sc_mcu7t5v0__fillcap_4
XFILLER_52_1153 vdd vss gf180mcu_fd_sc_mcu7t5v0__fillcap_4
XFILLER_104_1232 vdd vss gf180mcu_fd_sc_mcu7t5v0__fill_2
XANTENNA__8658__A3 _1288_ vdd vss gf180mcu_fd_sc_mcu7t5v0__antenna
XFILLER_100_1118 vdd vss gf180mcu_fd_sc_mcu7t5v0__fill_1
XFILLER_137_878 vdd vss gf180mcu_fd_sc_mcu7t5v0__fill_2
XANTENNA__7866__A1 _2719_ vdd vss gf180mcu_fd_sc_mcu7t5v0__antenna
X_8429_ _3379_ _3495_ _3517_ _3527_ _3373_ _3528_ vdd vss gf180mcu_fd_sc_mcu7t5v0__aoi221_1
XFILLER_136_388 vdd vss gf180mcu_fd_sc_mcu7t5v0__fill_2
XFILLER_65_1503 vdd vss gf180mcu_fd_sc_mcu7t5v0__fill_2
XFILLER_3_847 vdd vss gf180mcu_fd_sc_mcu7t5v0__fillcap_4
XFILLER_105_731 vdd vss gf180mcu_fd_sc_mcu7t5v0__fillcap_8
XANTENNA__5341__A2 _0647_ vdd vss gf180mcu_fd_sc_mcu7t5v0__antenna
XFILLER_137_1041 vdd vss gf180mcu_fd_sc_mcu7t5v0__fill_2