* NGSPICE file created from wrapped_as2650.ext - technology: gf180mcuC

* Black-box entry subcircuit for gf180mcu_fd_sc_mcu7t5v0__fill_2 abstract view
.subckt gf180mcu_fd_sc_mcu7t5v0__fill_2 VDD VSS
.ends

* Black-box entry subcircuit for gf180mcu_fd_sc_mcu7t5v0__fill_1 abstract view
.subckt gf180mcu_fd_sc_mcu7t5v0__fill_1 VDD VSS
.ends

* Black-box entry subcircuit for gf180mcu_fd_sc_mcu7t5v0__antenna abstract view
.subckt gf180mcu_fd_sc_mcu7t5v0__antenna I VDD VSS
.ends

* Black-box entry subcircuit for gf180mcu_fd_sc_mcu7t5v0__fillcap_4 abstract view
.subckt gf180mcu_fd_sc_mcu7t5v0__fillcap_4 VDD VSS
.ends

* Black-box entry subcircuit for gf180mcu_fd_sc_mcu7t5v0__fillcap_64 abstract view
.subckt gf180mcu_fd_sc_mcu7t5v0__fillcap_64 VDD VSS
.ends

* Black-box entry subcircuit for gf180mcu_fd_sc_mcu7t5v0__oai21_1 abstract view
.subckt gf180mcu_fd_sc_mcu7t5v0__oai21_1 A1 A2 B ZN VDD VSS
.ends

* Black-box entry subcircuit for gf180mcu_fd_sc_mcu7t5v0__clkbuf_1 abstract view
.subckt gf180mcu_fd_sc_mcu7t5v0__clkbuf_1 I Z VDD VSS
.ends

* Black-box entry subcircuit for gf180mcu_fd_sc_mcu7t5v0__nand2_1 abstract view
.subckt gf180mcu_fd_sc_mcu7t5v0__nand2_1 A1 A2 ZN VDD VSS
.ends

* Black-box entry subcircuit for gf180mcu_fd_sc_mcu7t5v0__fillcap_16 abstract view
.subckt gf180mcu_fd_sc_mcu7t5v0__fillcap_16 VDD VSS
.ends

* Black-box entry subcircuit for gf180mcu_fd_sc_mcu7t5v0__aoi22_1 abstract view
.subckt gf180mcu_fd_sc_mcu7t5v0__aoi22_1 A1 A2 B1 B2 ZN VDD VSS
.ends

* Black-box entry subcircuit for gf180mcu_fd_sc_mcu7t5v0__nor2_1 abstract view
.subckt gf180mcu_fd_sc_mcu7t5v0__nor2_1 A1 A2 ZN VDD VSS
.ends

* Black-box entry subcircuit for gf180mcu_fd_sc_mcu7t5v0__clkbuf_2 abstract view
.subckt gf180mcu_fd_sc_mcu7t5v0__clkbuf_2 I Z VDD VSS
.ends

* Black-box entry subcircuit for gf180mcu_fd_sc_mcu7t5v0__or2_1 abstract view
.subckt gf180mcu_fd_sc_mcu7t5v0__or2_1 A1 A2 Z VDD VSS
.ends

* Black-box entry subcircuit for gf180mcu_fd_sc_mcu7t5v0__buf_1 abstract view
.subckt gf180mcu_fd_sc_mcu7t5v0__buf_1 I Z VDD VSS
.ends

* Black-box entry subcircuit for gf180mcu_fd_sc_mcu7t5v0__filltie abstract view
.subckt gf180mcu_fd_sc_mcu7t5v0__filltie VDD VSS
.ends

* Black-box entry subcircuit for gf180mcu_fd_sc_mcu7t5v0__fillcap_8 abstract view
.subckt gf180mcu_fd_sc_mcu7t5v0__fillcap_8 VDD VSS
.ends

* Black-box entry subcircuit for gf180mcu_fd_sc_mcu7t5v0__clkbuf_16 abstract view
.subckt gf180mcu_fd_sc_mcu7t5v0__clkbuf_16 I Z VDD VSS
.ends

* Black-box entry subcircuit for gf180mcu_fd_sc_mcu7t5v0__oai21_2 abstract view
.subckt gf180mcu_fd_sc_mcu7t5v0__oai21_2 A1 A2 B ZN VDD VSS
.ends

* Black-box entry subcircuit for gf180mcu_fd_sc_mcu7t5v0__aoi221_4 abstract view
.subckt gf180mcu_fd_sc_mcu7t5v0__aoi221_4 A1 A2 B1 B2 C ZN VDD VSS
.ends

* Black-box entry subcircuit for gf180mcu_fd_sc_mcu7t5v0__xor2_1 abstract view
.subckt gf180mcu_fd_sc_mcu7t5v0__xor2_1 A1 A2 Z VDD VSS
.ends

* Black-box entry subcircuit for gf180mcu_fd_sc_mcu7t5v0__xnor2_1 abstract view
.subckt gf180mcu_fd_sc_mcu7t5v0__xnor2_1 A1 A2 ZN VDD VSS
.ends

* Black-box entry subcircuit for gf180mcu_fd_sc_mcu7t5v0__aoi211_1 abstract view
.subckt gf180mcu_fd_sc_mcu7t5v0__aoi211_1 A1 A2 B C ZN VDD VSS
.ends

* Black-box entry subcircuit for gf180mcu_fd_sc_mcu7t5v0__nand3_1 abstract view
.subckt gf180mcu_fd_sc_mcu7t5v0__nand3_1 A1 A2 A3 ZN VDD VSS
.ends

* Black-box entry subcircuit for gf180mcu_fd_sc_mcu7t5v0__and2_1 abstract view
.subckt gf180mcu_fd_sc_mcu7t5v0__and2_1 A1 A2 Z VDD VSS
.ends

* Black-box entry subcircuit for gf180mcu_fd_sc_mcu7t5v0__aoi21_1 abstract view
.subckt gf180mcu_fd_sc_mcu7t5v0__aoi21_1 A1 A2 B ZN VDD VSS
.ends

* Black-box entry subcircuit for gf180mcu_fd_sc_mcu7t5v0__oai22_1 abstract view
.subckt gf180mcu_fd_sc_mcu7t5v0__oai22_1 A1 A2 B1 B2 ZN VDD VSS
.ends

* Black-box entry subcircuit for gf180mcu_fd_sc_mcu7t5v0__fillcap_32 abstract view
.subckt gf180mcu_fd_sc_mcu7t5v0__fillcap_32 VDD VSS
.ends

* Black-box entry subcircuit for gf180mcu_fd_sc_mcu7t5v0__oai211_1 abstract view
.subckt gf180mcu_fd_sc_mcu7t5v0__oai211_1 A1 A2 B C ZN VDD VSS
.ends

* Black-box entry subcircuit for gf180mcu_fd_sc_mcu7t5v0__nand4_2 abstract view
.subckt gf180mcu_fd_sc_mcu7t5v0__nand4_2 A1 A2 A3 A4 ZN VDD VSS
.ends

* Black-box entry subcircuit for gf180mcu_fd_sc_mcu7t5v0__and4_1 abstract view
.subckt gf180mcu_fd_sc_mcu7t5v0__and4_1 A1 A2 A3 A4 Z VDD VSS
.ends

* Black-box entry subcircuit for gf180mcu_fd_sc_mcu7t5v0__dffq_1 abstract view
.subckt gf180mcu_fd_sc_mcu7t5v0__dffq_1 D CLK Q VDD VSS
.ends

* Black-box entry subcircuit for gf180mcu_fd_sc_mcu7t5v0__nand3_2 abstract view
.subckt gf180mcu_fd_sc_mcu7t5v0__nand3_2 A1 A2 A3 ZN VDD VSS
.ends

* Black-box entry subcircuit for gf180mcu_fd_sc_mcu7t5v0__oai221_1 abstract view
.subckt gf180mcu_fd_sc_mcu7t5v0__oai221_1 A1 A2 B1 B2 C ZN VDD VSS
.ends

* Black-box entry subcircuit for gf180mcu_fd_sc_mcu7t5v0__xor3_1 abstract view
.subckt gf180mcu_fd_sc_mcu7t5v0__xor3_1 A1 A2 A3 Z VDD VSS
.ends

* Black-box entry subcircuit for gf180mcu_fd_sc_mcu7t5v0__aoi222_1 abstract view
.subckt gf180mcu_fd_sc_mcu7t5v0__aoi222_1 A1 A2 B1 B2 C1 C2 ZN VDD VSS
.ends

* Black-box entry subcircuit for gf180mcu_fd_sc_mcu7t5v0__aoi21_2 abstract view
.subckt gf180mcu_fd_sc_mcu7t5v0__aoi21_2 A1 A2 B ZN VDD VSS
.ends

* Black-box entry subcircuit for gf180mcu_fd_sc_mcu7t5v0__clkinv_1 abstract view
.subckt gf180mcu_fd_sc_mcu7t5v0__clkinv_1 I ZN VDD VSS
.ends

* Black-box entry subcircuit for gf180mcu_fd_sc_mcu7t5v0__clkbuf_3 abstract view
.subckt gf180mcu_fd_sc_mcu7t5v0__clkbuf_3 I Z VDD VSS
.ends

* Black-box entry subcircuit for gf180mcu_fd_sc_mcu7t5v0__endcap abstract view
.subckt gf180mcu_fd_sc_mcu7t5v0__endcap VDD VSS
.ends

* Black-box entry subcircuit for gf180mcu_fd_sc_mcu7t5v0__aoi221_1 abstract view
.subckt gf180mcu_fd_sc_mcu7t5v0__aoi221_1 A1 A2 B1 B2 C ZN VDD VSS
.ends

* Black-box entry subcircuit for gf180mcu_fd_sc_mcu7t5v0__mux2_2 abstract view
.subckt gf180mcu_fd_sc_mcu7t5v0__mux2_2 I0 I1 S Z VDD VSS
.ends

* Black-box entry subcircuit for gf180mcu_fd_sc_mcu7t5v0__aoi221_2 abstract view
.subckt gf180mcu_fd_sc_mcu7t5v0__aoi221_2 A1 A2 B1 B2 C ZN VDD VSS
.ends

* Black-box entry subcircuit for gf180mcu_fd_sc_mcu7t5v0__mux4_1 abstract view
.subckt gf180mcu_fd_sc_mcu7t5v0__mux4_1 I0 I1 I2 I3 S0 S1 Z VDD VSS
.ends

* Black-box entry subcircuit for gf180mcu_fd_sc_mcu7t5v0__nor4_4 abstract view
.subckt gf180mcu_fd_sc_mcu7t5v0__nor4_4 A1 A2 A3 A4 ZN VDD VSS
.ends

* Black-box entry subcircuit for gf180mcu_fd_sc_mcu7t5v0__nor3_1 abstract view
.subckt gf180mcu_fd_sc_mcu7t5v0__nor3_1 A1 A2 A3 ZN VDD VSS
.ends

* Black-box entry subcircuit for gf180mcu_fd_sc_mcu7t5v0__and3_1 abstract view
.subckt gf180mcu_fd_sc_mcu7t5v0__and3_1 A1 A2 A3 Z VDD VSS
.ends

* Black-box entry subcircuit for gf180mcu_fd_sc_mcu7t5v0__nand2_2 abstract view
.subckt gf180mcu_fd_sc_mcu7t5v0__nand2_2 A1 A2 ZN VDD VSS
.ends

* Black-box entry subcircuit for gf180mcu_fd_sc_mcu7t5v0__oai31_1 abstract view
.subckt gf180mcu_fd_sc_mcu7t5v0__oai31_1 A1 A2 A3 B ZN VDD VSS
.ends

* Black-box entry subcircuit for gf180mcu_fd_sc_mcu7t5v0__nor3_2 abstract view
.subckt gf180mcu_fd_sc_mcu7t5v0__nor3_2 A1 A2 A3 ZN VDD VSS
.ends

* Black-box entry subcircuit for gf180mcu_fd_sc_mcu7t5v0__nor2_2 abstract view
.subckt gf180mcu_fd_sc_mcu7t5v0__nor2_2 A1 A2 ZN VDD VSS
.ends

* Black-box entry subcircuit for gf180mcu_fd_sc_mcu7t5v0__nor4_1 abstract view
.subckt gf180mcu_fd_sc_mcu7t5v0__nor4_1 A1 A2 A3 A4 ZN VDD VSS
.ends

* Black-box entry subcircuit for gf180mcu_fd_sc_mcu7t5v0__inv_1 abstract view
.subckt gf180mcu_fd_sc_mcu7t5v0__inv_1 I ZN VDD VSS
.ends

* Black-box entry subcircuit for gf180mcu_fd_sc_mcu7t5v0__clkbuf_8 abstract view
.subckt gf180mcu_fd_sc_mcu7t5v0__clkbuf_8 I Z VDD VSS
.ends

* Black-box entry subcircuit for gf180mcu_fd_sc_mcu7t5v0__nand4_1 abstract view
.subckt gf180mcu_fd_sc_mcu7t5v0__nand4_1 A1 A2 A3 A4 ZN VDD VSS
.ends

* Black-box entry subcircuit for gf180mcu_fd_sc_mcu7t5v0__aoi211_2 abstract view
.subckt gf180mcu_fd_sc_mcu7t5v0__aoi211_2 A1 A2 B C ZN VDD VSS
.ends

* Black-box entry subcircuit for gf180mcu_fd_sc_mcu7t5v0__or3_1 abstract view
.subckt gf180mcu_fd_sc_mcu7t5v0__or3_1 A1 A2 A3 Z VDD VSS
.ends

* Black-box entry subcircuit for gf180mcu_fd_sc_mcu7t5v0__oai221_2 abstract view
.subckt gf180mcu_fd_sc_mcu7t5v0__oai221_2 A1 A2 B1 B2 C ZN VDD VSS
.ends

* Black-box entry subcircuit for gf180mcu_fd_sc_mcu7t5v0__oai211_2 abstract view
.subckt gf180mcu_fd_sc_mcu7t5v0__oai211_2 A1 A2 B C ZN VDD VSS
.ends

* Black-box entry subcircuit for gf180mcu_fd_sc_mcu7t5v0__or4_1 abstract view
.subckt gf180mcu_fd_sc_mcu7t5v0__or4_1 A1 A2 A3 A4 Z VDD VSS
.ends

* Black-box entry subcircuit for gf180mcu_fd_sc_mcu7t5v0__xnor3_1 abstract view
.subckt gf180mcu_fd_sc_mcu7t5v0__xnor3_1 A1 A2 A3 ZN VDD VSS
.ends

* Black-box entry subcircuit for gf180mcu_fd_sc_mcu7t5v0__oai32_1 abstract view
.subckt gf180mcu_fd_sc_mcu7t5v0__oai32_1 A1 A2 A3 B1 B2 ZN VDD VSS
.ends

* Black-box entry subcircuit for gf180mcu_fd_sc_mcu7t5v0__buf_2 abstract view
.subckt gf180mcu_fd_sc_mcu7t5v0__buf_2 I Z VDD VSS
.ends

* Black-box entry subcircuit for gf180mcu_fd_sc_mcu7t5v0__oai222_1 abstract view
.subckt gf180mcu_fd_sc_mcu7t5v0__oai222_1 A1 A2 B1 B2 C1 C2 ZN VDD VSS
.ends

* Black-box entry subcircuit for gf180mcu_fd_sc_mcu7t5v0__xor2_2 abstract view
.subckt gf180mcu_fd_sc_mcu7t5v0__xor2_2 A1 A2 Z VDD VSS
.ends

* Black-box entry subcircuit for gf180mcu_fd_sc_mcu7t5v0__clkinv_2 abstract view
.subckt gf180mcu_fd_sc_mcu7t5v0__clkinv_2 I ZN VDD VSS
.ends

* Black-box entry subcircuit for gf180mcu_fd_sc_mcu7t5v0__aoi22_2 abstract view
.subckt gf180mcu_fd_sc_mcu7t5v0__aoi22_2 A1 A2 B1 B2 ZN VDD VSS
.ends

* Black-box entry subcircuit for gf180mcu_fd_sc_mcu7t5v0__nor4_2 abstract view
.subckt gf180mcu_fd_sc_mcu7t5v0__nor4_2 A1 A2 A3 A4 ZN VDD VSS
.ends

* Black-box entry subcircuit for gf180mcu_fd_sc_mcu7t5v0__nor2_4 abstract view
.subckt gf180mcu_fd_sc_mcu7t5v0__nor2_4 A1 A2 ZN VDD VSS
.ends

* Black-box entry subcircuit for gf180mcu_fd_sc_mcu7t5v0__tieh abstract view
.subckt gf180mcu_fd_sc_mcu7t5v0__tieh Z VDD VSS
.ends

* Black-box entry subcircuit for gf180mcu_fd_sc_mcu7t5v0__nand4_4 abstract view
.subckt gf180mcu_fd_sc_mcu7t5v0__nand4_4 A1 A2 A3 A4 ZN VDD VSS
.ends

* Black-box entry subcircuit for gf180mcu_fd_sc_mcu7t5v0__tiel abstract view
.subckt gf180mcu_fd_sc_mcu7t5v0__tiel ZN VDD VSS
.ends

* Black-box entry subcircuit for gf180mcu_fd_sc_mcu7t5v0__oai22_2 abstract view
.subckt gf180mcu_fd_sc_mcu7t5v0__oai22_2 A1 A2 B1 B2 ZN VDD VSS
.ends

* Black-box entry subcircuit for gf180mcu_fd_sc_mcu7t5v0__oai31_2 abstract view
.subckt gf180mcu_fd_sc_mcu7t5v0__oai31_2 A1 A2 A3 B ZN VDD VSS
.ends

* Black-box entry subcircuit for gf180mcu_fd_sc_mcu7t5v0__aoi222_4 abstract view
.subckt gf180mcu_fd_sc_mcu7t5v0__aoi222_4 A1 A2 B1 B2 C1 C2 ZN VDD VSS
.ends

* Black-box entry subcircuit for gf180mcu_fd_sc_mcu7t5v0__dlyb_1 abstract view
.subckt gf180mcu_fd_sc_mcu7t5v0__dlyb_1 I Z VDD VSS
.ends

* Black-box entry subcircuit for gf180mcu_fd_sc_mcu7t5v0__dlyc_1 abstract view
.subckt gf180mcu_fd_sc_mcu7t5v0__dlyc_1 I Z VDD VSS
.ends

* Black-box entry subcircuit for gf180mcu_fd_sc_mcu7t5v0__dlyd_1 abstract view
.subckt gf180mcu_fd_sc_mcu7t5v0__dlyd_1 I Z VDD VSS
.ends

* Black-box entry subcircuit for gf180mcu_fd_sc_mcu7t5v0__oai32_4 abstract view
.subckt gf180mcu_fd_sc_mcu7t5v0__oai32_4 A1 A2 A3 B1 B2 ZN VDD VSS
.ends

* Black-box entry subcircuit for gf180mcu_fd_sc_mcu7t5v0__dffq_2 abstract view
.subckt gf180mcu_fd_sc_mcu7t5v0__dffq_2 D CLK Q VDD VSS
.ends

* Black-box entry subcircuit for gf180mcu_fd_sc_mcu7t5v0__nor3_4 abstract view
.subckt gf180mcu_fd_sc_mcu7t5v0__nor3_4 A1 A2 A3 ZN VDD VSS
.ends

* Black-box entry subcircuit for gf180mcu_fd_sc_mcu7t5v0__aoi211_4 abstract view
.subckt gf180mcu_fd_sc_mcu7t5v0__aoi211_4 A1 A2 B C ZN VDD VSS
.ends

* Black-box entry subcircuit for gf180mcu_fd_sc_mcu7t5v0__oai222_2 abstract view
.subckt gf180mcu_fd_sc_mcu7t5v0__oai222_2 A1 A2 B1 B2 C1 C2 ZN VDD VSS
.ends

* Black-box entry subcircuit for gf180mcu_fd_sc_mcu7t5v0__xor3_2 abstract view
.subckt gf180mcu_fd_sc_mcu7t5v0__xor3_2 A1 A2 A3 Z VDD VSS
.ends

* Black-box entry subcircuit for gf180mcu_fd_sc_mcu7t5v0__mux4_2 abstract view
.subckt gf180mcu_fd_sc_mcu7t5v0__mux4_2 I0 I1 I2 I3 S0 S1 Z VDD VSS
.ends

* Black-box entry subcircuit for gf180mcu_fd_sc_mcu7t5v0__oai221_4 abstract view
.subckt gf180mcu_fd_sc_mcu7t5v0__oai221_4 A1 A2 B1 B2 C ZN VDD VSS
.ends

* Black-box entry subcircuit for gf180mcu_fd_sc_mcu7t5v0__aoi21_4 abstract view
.subckt gf180mcu_fd_sc_mcu7t5v0__aoi21_4 A1 A2 B ZN VDD VSS
.ends

.subckt wrapped_as2650 io_in[0] io_in[10] io_in[11] io_in[12] io_in[13] io_in[14]
+ io_in[15] io_in[16] io_in[17] io_in[18] io_in[19] io_in[1] io_in[20] io_in[21] io_in[22]
+ io_in[23] io_in[24] io_in[25] io_in[26] io_in[27] io_in[28] io_in[29] io_in[2] io_in[30]
+ io_in[31] io_in[32] io_in[33] io_in[34] io_in[35] io_in[36] io_in[37] io_in[3] io_in[4]
+ io_in[5] io_in[6] io_in[7] io_in[8] io_in[9] io_oeb[0] io_oeb[10] io_oeb[11] io_oeb[12]
+ io_oeb[13] io_oeb[14] io_oeb[15] io_oeb[16] io_oeb[17] io_oeb[18] io_oeb[19] io_oeb[1]
+ io_oeb[20] io_oeb[21] io_oeb[22] io_oeb[23] io_oeb[24] io_oeb[25] io_oeb[26] io_oeb[27]
+ io_oeb[28] io_oeb[29] io_oeb[2] io_oeb[30] io_oeb[31] io_oeb[32] io_oeb[33] io_oeb[34]
+ io_oeb[35] io_oeb[36] io_oeb[37] io_oeb[3] io_oeb[4] io_oeb[5] io_oeb[6] io_oeb[7]
+ io_oeb[8] io_oeb[9] io_out[0] io_out[10] io_out[11] io_out[12] io_out[13] io_out[14]
+ io_out[15] io_out[16] io_out[17] io_out[18] io_out[19] io_out[1] io_out[20] io_out[21]
+ io_out[22] io_out[23] io_out[24] io_out[25] io_out[26] io_out[27] io_out[28] io_out[29]
+ io_out[2] io_out[30] io_out[31] io_out[32] io_out[33] io_out[34] io_out[35] io_out[36]
+ io_out[37] io_out[3] io_out[4] io_out[5] io_out[6] io_out[7] io_out[8] io_out[9]
+ vdd vss wb_clk_i wb_rst_i
XFILLER_100_127 vdd vss gf180mcu_fd_sc_mcu7t5v0__fill_2
XFILLER_79_391 vdd vss gf180mcu_fd_sc_mcu7t5v0__fill_2
XFILLER_95_851 vdd vss gf180mcu_fd_sc_mcu7t5v0__fill_1
XANTENNA__7406__A1 _0423_ vdd vss gf180mcu_fd_sc_mcu7t5v0__antenna
XANTENNA__6209__A2 _1696_ vdd vss gf180mcu_fd_sc_mcu7t5v0__antenna
XANTENNA__5268__I0 as2650.r123\[0\]\[7\] vdd vss gf180mcu_fd_sc_mcu7t5v0__antenna
XFILLER_67_586 vdd vss gf180mcu_fd_sc_mcu7t5v0__fillcap_4
XFILLER_27_428 vdd vss gf180mcu_fd_sc_mcu7t5v0__fillcap_64
XFILLER_55_737 vdd vss gf180mcu_fd_sc_mcu7t5v0__fill_2
XFILLER_54_214 vdd vss gf180mcu_fd_sc_mcu7t5v0__fill_1
X_7963_ _1644_ _3316_ _3274_ _3317_ vdd vss gf180mcu_fd_sc_mcu7t5v0__oai21_1
XFILLER_82_534 vdd vss gf180mcu_fd_sc_mcu7t5v0__fill_1
X_6914_ _1613_ _2312_ vdd vss gf180mcu_fd_sc_mcu7t5v0__clkbuf_1
XFILLER_78_1150 vdd vss gf180mcu_fd_sc_mcu7t5v0__fill_2
XFILLER_82_578 vdd vss gf180mcu_fd_sc_mcu7t5v0__fill_2
XFILLER_51_910 vdd vss gf180mcu_fd_sc_mcu7t5v0__fillcap_4
X_7894_ _1564_ _3251_ _3252_ vdd vss gf180mcu_fd_sc_mcu7t5v0__nand2_1
XANTENNA__8657__CLK clknet_leaf_32_wb_clk_i vdd vss gf180mcu_fd_sc_mcu7t5v0__antenna
XFILLER_74_1025 vdd vss gf180mcu_fd_sc_mcu7t5v0__fillcap_4
X_6845_ _2244_ _2253_ vdd vss gf180mcu_fd_sc_mcu7t5v0__clkbuf_1
XFILLER_23_634 vdd vss gf180mcu_fd_sc_mcu7t5v0__fillcap_4
XFILLER_1_1490 vdd vss gf180mcu_fd_sc_mcu7t5v0__fill_1
XFILLER_23_645 vdd vss gf180mcu_fd_sc_mcu7t5v0__fillcap_16
XFILLER_126_1137 vdd vss gf180mcu_fd_sc_mcu7t5v0__fill_1
XANTENNA__8382__A2 _3075_ vdd vss gf180mcu_fd_sc_mcu7t5v0__antenna
XFILLER_51_976 vdd vss gf180mcu_fd_sc_mcu7t5v0__fill_2
X_6776_ _0407_ _2188_ _2193_ as2650.r123_2\[1\]\[2\] _2199_ vdd vss gf180mcu_fd_sc_mcu7t5v0__aoi22_1
XFILLER_52_1312 vdd vss gf180mcu_fd_sc_mcu7t5v0__fill_1
XANTENNA__5196__A2 _0585_ vdd vss gf180mcu_fd_sc_mcu7t5v0__antenna
XFILLER_108_1560 vdd vss gf180mcu_fd_sc_mcu7t5v0__fillcap_16
X_8515_ _3789_ _3804_ _3805_ vdd vss gf180mcu_fd_sc_mcu7t5v0__nand2_1
X_5727_ _1260_ _1073_ _1261_ vdd vss gf180mcu_fd_sc_mcu7t5v0__nor2_1
XANTENNA__7256__I _4070_ vdd vss gf180mcu_fd_sc_mcu7t5v0__antenna
XFILLER_136_503 vdd vss gf180mcu_fd_sc_mcu7t5v0__fill_2
XANTENNA__8134__A2 _2671_ vdd vss gf180mcu_fd_sc_mcu7t5v0__antenna
XANTENNA__6160__I _0558_ vdd vss gf180mcu_fd_sc_mcu7t5v0__antenna
XFILLER_104_1457 vdd vss gf180mcu_fd_sc_mcu7t5v0__fillcap_64
X_8446_ as2650.r123\[2\]\[3\] _3741_ _3746_ vdd vss gf180mcu_fd_sc_mcu7t5v0__nand2_1
X_5658_ _1197_ _1198_ vdd vss gf180mcu_fd_sc_mcu7t5v0__clkbuf_1
XFILLER_108_238 vdd vss gf180mcu_fd_sc_mcu7t5v0__fill_2
XFILLER_87_1419 vdd vss gf180mcu_fd_sc_mcu7t5v0__fill_1
XFILLER_136_569 vdd vss gf180mcu_fd_sc_mcu7t5v0__fillcap_16
XANTENNA__7893__A1 _1210_ vdd vss gf180mcu_fd_sc_mcu7t5v0__antenna
X_4609_ _4189_ _4190_ vdd vss gf180mcu_fd_sc_mcu7t5v0__clkbuf_2
X_8377_ _1240_ _1295_ _3683_ vdd vss gf180mcu_fd_sc_mcu7t5v0__or2_1
XFILLER_102_1170 vdd vss gf180mcu_fd_sc_mcu7t5v0__fill_1
XANTENNA__7893__B2 _2799_ vdd vss gf180mcu_fd_sc_mcu7t5v0__antenna
XFILLER_11_1064 vdd vss gf180mcu_fd_sc_mcu7t5v0__fill_1
X_5589_ _1115_ _1134_ _1136_ _0017_ vdd vss gf180mcu_fd_sc_mcu7t5v0__oai21_1
XFILLER_85_1121 vdd vss gf180mcu_fd_sc_mcu7t5v0__fill_2
XFILLER_117_783 vdd vss gf180mcu_fd_sc_mcu7t5v0__fill_2
XFILLER_2_527 vdd vss gf180mcu_fd_sc_mcu7t5v0__fillcap_4
X_7328_ _2700_ _2702_ _2703_ vdd vss gf180mcu_fd_sc_mcu7t5v0__nor2_1
XFILLER_116_271 vdd vss gf180mcu_fd_sc_mcu7t5v0__fill_2
XFILLER_105_945 vdd vss gf180mcu_fd_sc_mcu7t5v0__fillcap_4
XFILLER_144_591 vdd vss gf180mcu_fd_sc_mcu7t5v0__fillcap_4
XFILLER_116_282 vdd vss gf180mcu_fd_sc_mcu7t5v0__fill_2
XFILLER_117_66 vdd vss gf180mcu_fd_sc_mcu7t5v0__fillcap_4
XANTENNA__7645__A1 _1190_ vdd vss gf180mcu_fd_sc_mcu7t5v0__antenna
XANTENNA__6448__A2 _1903_ vdd vss gf180mcu_fd_sc_mcu7t5v0__antenna
XFILLER_78_818 vdd vss gf180mcu_fd_sc_mcu7t5v0__fill_2
XFILLER_89_144 vdd vss gf180mcu_fd_sc_mcu7t5v0__fillcap_16
X_7259_ _1581_ _2635_ vdd vss gf180mcu_fd_sc_mcu7t5v0__buf_1
XFILLER_133_1108 vdd vss gf180mcu_fd_sc_mcu7t5v0__fill_2
XANTENNA__4459__A1 _3906_ vdd vss gf180mcu_fd_sc_mcu7t5v0__antenna
XFILLER_137_1277 vdd vss gf180mcu_fd_sc_mcu7t5v0__fill_1
XFILLER_131_263 vdd vss gf180mcu_fd_sc_mcu7t5v0__fill_2
XFILLER_63_1441 vdd vss gf180mcu_fd_sc_mcu7t5v0__fill_2
XANTENNA__6999__A3 _2395_ vdd vss gf180mcu_fd_sc_mcu7t5v0__antenna
XANTENNA__5120__A2 _0651_ vdd vss gf180mcu_fd_sc_mcu7t5v0__antenna
XFILLER_131_296 vdd vss gf180mcu_fd_sc_mcu7t5v0__fill_1
XFILLER_58_531 vdd vss gf180mcu_fd_sc_mcu7t5v0__fill_1
XFILLER_115_1564 vdd vss gf180mcu_fd_sc_mcu7t5v0__fillcap_16
XFILLER_19_918 vdd vss gf180mcu_fd_sc_mcu7t5v0__fillcap_4
XTAP_3202 vdd vss gf180mcu_fd_sc_mcu7t5v0__filltie
XFILLER_58_575 vdd vss gf180mcu_fd_sc_mcu7t5v0__fill_2
XFILLER_86_884 vdd vss gf180mcu_fd_sc_mcu7t5v0__fill_2
XTAP_3213 vdd vss gf180mcu_fd_sc_mcu7t5v0__filltie
XFILLER_46_726 vdd vss gf180mcu_fd_sc_mcu7t5v0__fill_2
XANTENNA__5440__S _0929_ vdd vss gf180mcu_fd_sc_mcu7t5v0__antenna
XTAP_3224 vdd vss gf180mcu_fd_sc_mcu7t5v0__filltie
XANTENNA__7948__A2 _1624_ vdd vss gf180mcu_fd_sc_mcu7t5v0__antenna
XTAP_3235 vdd vss gf180mcu_fd_sc_mcu7t5v0__filltie
XANTENNA__8070__A1 _2339_ vdd vss gf180mcu_fd_sc_mcu7t5v0__antenna
XTAP_2501 vdd vss gf180mcu_fd_sc_mcu7t5v0__filltie
XTAP_3246 vdd vss gf180mcu_fd_sc_mcu7t5v0__filltie
XFILLER_46_759 vdd vss gf180mcu_fd_sc_mcu7t5v0__fill_1
XFILLER_73_545 vdd vss gf180mcu_fd_sc_mcu7t5v0__fillcap_16
XANTENNA__5959__A1 _1193_ vdd vss gf180mcu_fd_sc_mcu7t5v0__antenna
XANTENNA_output37_I net37 vdd vss gf180mcu_fd_sc_mcu7t5v0__antenna
XTAP_3257 vdd vss gf180mcu_fd_sc_mcu7t5v0__filltie
XTAP_2512 vdd vss gf180mcu_fd_sc_mcu7t5v0__filltie
XTAP_3268 vdd vss gf180mcu_fd_sc_mcu7t5v0__filltie
XTAP_2523 vdd vss gf180mcu_fd_sc_mcu7t5v0__filltie
XTAP_3279 vdd vss gf180mcu_fd_sc_mcu7t5v0__filltie
XTAP_2534 vdd vss gf180mcu_fd_sc_mcu7t5v0__filltie
XANTENNA__6335__I _0826_ vdd vss gf180mcu_fd_sc_mcu7t5v0__antenna
XTAP_2545 vdd vss gf180mcu_fd_sc_mcu7t5v0__filltie
XFILLER_57_1201 vdd vss gf180mcu_fd_sc_mcu7t5v0__fillcap_4
XTAP_1800 vdd vss gf180mcu_fd_sc_mcu7t5v0__filltie
XFILLER_73_578 vdd vss gf180mcu_fd_sc_mcu7t5v0__fillcap_4
XTAP_2556 vdd vss gf180mcu_fd_sc_mcu7t5v0__filltie
XTAP_1811 vdd vss gf180mcu_fd_sc_mcu7t5v0__filltie
XFILLER_73_589 vdd vss gf180mcu_fd_sc_mcu7t5v0__fill_2
XTAP_1822 vdd vss gf180mcu_fd_sc_mcu7t5v0__filltie
XTAP_2567 vdd vss gf180mcu_fd_sc_mcu7t5v0__filltie
XTAP_2578 vdd vss gf180mcu_fd_sc_mcu7t5v0__filltie
XTAP_1833 vdd vss gf180mcu_fd_sc_mcu7t5v0__filltie
XTAP_2589 vdd vss gf180mcu_fd_sc_mcu7t5v0__filltie
XFILLER_42_943 vdd vss gf180mcu_fd_sc_mcu7t5v0__fill_2
XFILLER_60_239 vdd vss gf180mcu_fd_sc_mcu7t5v0__fill_2
XTAP_1844 vdd vss gf180mcu_fd_sc_mcu7t5v0__filltie
XFILLER_53_280 vdd vss gf180mcu_fd_sc_mcu7t5v0__fillcap_4
XTAP_1855 vdd vss gf180mcu_fd_sc_mcu7t5v0__filltie
XTAP_1866 vdd vss gf180mcu_fd_sc_mcu7t5v0__filltie
XFILLER_92_1147 vdd vss gf180mcu_fd_sc_mcu7t5v0__fill_2
XFILLER_144_1237 vdd vss gf180mcu_fd_sc_mcu7t5v0__fillcap_4
XFILLER_35_1510 vdd vss gf180mcu_fd_sc_mcu7t5v0__fill_2
XFILLER_13_144 vdd vss gf180mcu_fd_sc_mcu7t5v0__fillcap_64
XTAP_1877 vdd vss gf180mcu_fd_sc_mcu7t5v0__filltie
XFILLER_92_1169 vdd vss gf180mcu_fd_sc_mcu7t5v0__fill_2
XTAP_1888 vdd vss gf180mcu_fd_sc_mcu7t5v0__filltie
XFILLER_74_1570 vdd vss gf180mcu_fd_sc_mcu7t5v0__fill_2
XTAP_1899 vdd vss gf180mcu_fd_sc_mcu7t5v0__filltie
XFILLER_144_1259 vdd vss gf180mcu_fd_sc_mcu7t5v0__fill_1
XFILLER_139_330 vdd vss gf180mcu_fd_sc_mcu7t5v0__fill_2
XFILLER_9_137 vdd vss gf180mcu_fd_sc_mcu7t5v0__fillcap_4
XANTENNA__6923__A3 _1399_ vdd vss gf180mcu_fd_sc_mcu7t5v0__antenna
XFILLER_70_1445 vdd vss gf180mcu_fd_sc_mcu7t5v0__fill_2
XANTENNA__4934__A2 _0495_ vdd vss gf180mcu_fd_sc_mcu7t5v0__antenna
XANTENNA__8125__A2 _3439_ vdd vss gf180mcu_fd_sc_mcu7t5v0__antenna
XFILLER_139_374 vdd vss gf180mcu_fd_sc_mcu7t5v0__fillcap_8
XFILLER_6_811 vdd vss gf180mcu_fd_sc_mcu7t5v0__fillcap_4
XANTENNA__6070__I _4029_ vdd vss gf180mcu_fd_sc_mcu7t5v0__antenna
XANTENNA__6687__A2 _2124_ vdd vss gf180mcu_fd_sc_mcu7t5v0__antenna
XFILLER_5_354 vdd vss gf180mcu_fd_sc_mcu7t5v0__fill_1
XANTENNA__4698__A1 _4237_ vdd vss gf180mcu_fd_sc_mcu7t5v0__antenna
XFILLER_68_1352 vdd vss gf180mcu_fd_sc_mcu7t5v0__fill_2
XFILLER_123_720 vdd vss gf180mcu_fd_sc_mcu7t5v0__fill_2
XFILLER_108_794 vdd vss gf180mcu_fd_sc_mcu7t5v0__fill_2
XFILLER_107_282 vdd vss gf180mcu_fd_sc_mcu7t5v0__fill_2
XFILLER_64_1205 vdd vss gf180mcu_fd_sc_mcu7t5v0__fill_2
XFILLER_69_807 vdd vss gf180mcu_fd_sc_mcu7t5v0__fillcap_16
XANTENNA__7636__A1 _3001_ vdd vss gf180mcu_fd_sc_mcu7t5v0__antenna
XFILLER_9_1419 vdd vss gf180mcu_fd_sc_mcu7t5v0__fill_1
XFILLER_64_1238 vdd vss gf180mcu_fd_sc_mcu7t5v0__fillcap_4
XFILLER_111_915 vdd vss gf180mcu_fd_sc_mcu7t5v0__fill_2
XFILLER_81_1530 vdd vss gf180mcu_fd_sc_mcu7t5v0__fill_2
XFILLER_123_797 vdd vss gf180mcu_fd_sc_mcu7t5v0__fill_1
XFILLER_116_1339 vdd vss gf180mcu_fd_sc_mcu7t5v0__fill_2
XFILLER_27_1060 vdd vss gf180mcu_fd_sc_mcu7t5v0__fillcap_4
XFILLER_96_659 vdd vss gf180mcu_fd_sc_mcu7t5v0__fillcap_8
XFILLER_42_1525 vdd vss gf180mcu_fd_sc_mcu7t5v0__fill_1
XFILLER_49_542 vdd vss gf180mcu_fd_sc_mcu7t5v0__fill_2
XFILLER_77_862 vdd vss gf180mcu_fd_sc_mcu7t5v0__fill_2
XFILLER_37_704 vdd vss gf180mcu_fd_sc_mcu7t5v0__fill_2
Xclkbuf_leaf_60_wb_clk_i clknet_3_4_0_wb_clk_i clknet_leaf_60_wb_clk_i vdd vss gf180mcu_fd_sc_mcu7t5v0__clkbuf_16
XFILLER_67_92 vdd vss gf180mcu_fd_sc_mcu7t5v0__fill_1
XANTENNA__7939__A2 _0726_ vdd vss gf180mcu_fd_sc_mcu7t5v0__antenna
XFILLER_64_512 vdd vss gf180mcu_fd_sc_mcu7t5v0__fillcap_16
XFILLER_114_1096 vdd vss gf180mcu_fd_sc_mcu7t5v0__fill_1
XFILLER_64_534 vdd vss gf180mcu_fd_sc_mcu7t5v0__fillcap_8
XANTENNA__8061__A1 _2138_ vdd vss gf180mcu_fd_sc_mcu7t5v0__antenna
XFILLER_36_247 vdd vss gf180mcu_fd_sc_mcu7t5v0__fill_1
XFILLER_97_1058 vdd vss gf180mcu_fd_sc_mcu7t5v0__fillcap_4
XFILLER_97_1069 vdd vss gf180mcu_fd_sc_mcu7t5v0__fill_1
XFILLER_64_578 vdd vss gf180mcu_fd_sc_mcu7t5v0__fill_2
X_4960_ as2650.holding_reg\[4\] _4166_ _0520_ _0521_ vdd vss gf180mcu_fd_sc_mcu7t5v0__oai21_2
XFILLER_92_898 vdd vss gf180mcu_fd_sc_mcu7t5v0__fill_2
XANTENNA__4622__A1 _4170_ vdd vss gf180mcu_fd_sc_mcu7t5v0__antenna
XFILLER_33_921 vdd vss gf180mcu_fd_sc_mcu7t5v0__fill_2
XFILLER_75_1345 vdd vss gf180mcu_fd_sc_mcu7t5v0__fillcap_4
X_4891_ _0382_ _0429_ _0449_ _4059_ _0452_ _0453_ vdd vss gf180mcu_fd_sc_mcu7t5v0__aoi221_4
XANTENNA__7167__A3 _2389_ vdd vss gf180mcu_fd_sc_mcu7t5v0__antenna
XANTENNA__8364__A2 _3567_ vdd vss gf180mcu_fd_sc_mcu7t5v0__antenna
XFILLER_71_1209 vdd vss gf180mcu_fd_sc_mcu7t5v0__fill_1
X_6630_ _2078_ _2080_ _2081_ vdd vss gf180mcu_fd_sc_mcu7t5v0__xor2_1
XANTENNA__8460__I _1535_ vdd vss gf180mcu_fd_sc_mcu7t5v0__antenna
XANTENNA__6375__A1 _3994_ vdd vss gf180mcu_fd_sc_mcu7t5v0__antenna
XFILLER_32_486 vdd vss gf180mcu_fd_sc_mcu7t5v0__fill_2
XFILLER_34_1031 vdd vss gf180mcu_fd_sc_mcu7t5v0__fillcap_64
XFILLER_73_1080 vdd vss gf180mcu_fd_sc_mcu7t5v0__fillcap_4
XFILLER_80_2 vdd vss gf180mcu_fd_sc_mcu7t5v0__fillcap_16
X_6561_ _2012_ _2013_ _2014_ vdd vss gf180mcu_fd_sc_mcu7t5v0__xnor2_1
XFILLER_125_1170 vdd vss gf180mcu_fd_sc_mcu7t5v0__fill_2
XANTENNA__7076__I _1090_ vdd vss gf180mcu_fd_sc_mcu7t5v0__antenna
XFILLER_118_503 vdd vss gf180mcu_fd_sc_mcu7t5v0__fill_2
XANTENNA__8116__A2 _3191_ vdd vss gf180mcu_fd_sc_mcu7t5v0__antenna
X_8300_ _0876_ _3189_ _3609_ vdd vss gf180mcu_fd_sc_mcu7t5v0__nand2_1
X_5512_ _0890_ _0908_ _0909_ _1061_ _1062_ vdd vss gf180mcu_fd_sc_mcu7t5v0__aoi211_1
X_6492_ _1771_ _1946_ _1947_ vdd vss gf180mcu_fd_sc_mcu7t5v0__nand2_1
XFILLER_121_1067 vdd vss gf180mcu_fd_sc_mcu7t5v0__fillcap_4
X_8231_ _3526_ _2808_ _3527_ _3542_ vdd vss gf180mcu_fd_sc_mcu7t5v0__nand3_1
XFILLER_69_1138 vdd vss gf180mcu_fd_sc_mcu7t5v0__fillcap_4
X_5443_ _0940_ _0997_ _0998_ vdd vss gf180mcu_fd_sc_mcu7t5v0__and2_1
XFILLER_121_1089 vdd vss gf180mcu_fd_sc_mcu7t5v0__fill_2
XFILLER_133_539 vdd vss gf180mcu_fd_sc_mcu7t5v0__fill_2
X_8162_ _3470_ _3475_ _3155_ _3476_ vdd vss gf180mcu_fd_sc_mcu7t5v0__aoi21_1
XANTENNA__5350__A2 _4209_ vdd vss gf180mcu_fd_sc_mcu7t5v0__antenna
X_5374_ as2650.stack\[2\]\[8\] _0920_ _0927_ _0930_ _0931_ vdd vss gf180mcu_fd_sc_mcu7t5v0__oai22_1
XANTENNA__7627__A1 _2994_ vdd vss gf180mcu_fd_sc_mcu7t5v0__antenna
X_7113_ _1085_ _2497_ vdd vss gf180mcu_fd_sc_mcu7t5v0__buf_1
X_4325_ _3901_ _3905_ _3906_ vdd vss gf180mcu_fd_sc_mcu7t5v0__nor2_1
X_8093_ _2632_ _2734_ _3409_ vdd vss gf180mcu_fd_sc_mcu7t5v0__nor2_1
XFILLER_102_926 vdd vss gf180mcu_fd_sc_mcu7t5v0__fillcap_32
XFILLER_59_306 vdd vss gf180mcu_fd_sc_mcu7t5v0__fill_2
XFILLER_99_486 vdd vss gf180mcu_fd_sc_mcu7t5v0__fillcap_8
XFILLER_101_425 vdd vss gf180mcu_fd_sc_mcu7t5v0__fill_1
X_7044_ _0320_ _2422_ _2435_ _0173_ vdd vss gf180mcu_fd_sc_mcu7t5v0__aoi21_1
XFILLER_80_1040 vdd vss gf180mcu_fd_sc_mcu7t5v0__fill_2
XFILLER_132_1130 vdd vss gf180mcu_fd_sc_mcu7t5v0__fill_2
XFILLER_74_309 vdd vss gf180mcu_fd_sc_mcu7t5v0__fill_2
XANTENNA__6850__A2 _2253_ vdd vss gf180mcu_fd_sc_mcu7t5v0__antenna
XFILLER_67_350 vdd vss gf180mcu_fd_sc_mcu7t5v0__fillcap_4
XFILLER_80_1084 vdd vss gf180mcu_fd_sc_mcu7t5v0__fill_1
XFILLER_110_981 vdd vss gf180mcu_fd_sc_mcu7t5v0__fill_2
XFILLER_132_1196 vdd vss gf180mcu_fd_sc_mcu7t5v0__fill_2
XFILLER_83_854 vdd vss gf180mcu_fd_sc_mcu7t5v0__fillcap_16
XFILLER_94_191 vdd vss gf180mcu_fd_sc_mcu7t5v0__fill_1
XFILLER_55_567 vdd vss gf180mcu_fd_sc_mcu7t5v0__fill_1
XFILLER_58_1521 vdd vss gf180mcu_fd_sc_mcu7t5v0__fillcap_4
XFILLER_82_364 vdd vss gf180mcu_fd_sc_mcu7t5v0__fill_1
XTAP_1107 vdd vss gf180mcu_fd_sc_mcu7t5v0__filltie
XFILLER_55_589 vdd vss gf180mcu_fd_sc_mcu7t5v0__fill_2
X_7946_ _1564_ _1356_ _3299_ _3300_ _3301_ vdd vss gf180mcu_fd_sc_mcu7t5v0__oai22_1
XTAP_1118 vdd vss gf180mcu_fd_sc_mcu7t5v0__filltie
XTAP_1129 vdd vss gf180mcu_fd_sc_mcu7t5v0__filltie
XFILLER_58_1576 vdd vss gf180mcu_fd_sc_mcu7t5v0__fillcap_4
X_7877_ _3158_ _1345_ _3235_ _1550_ _3236_ vdd vss gf180mcu_fd_sc_mcu7t5v0__oai211_1
XFILLER_93_1478 vdd vss gf180mcu_fd_sc_mcu7t5v0__fill_2
XFILLER_50_250 vdd vss gf180mcu_fd_sc_mcu7t5v0__fill_1
X_6828_ _1409_ _1267_ _2220_ _2236_ _2237_ vdd vss gf180mcu_fd_sc_mcu7t5v0__nand4_2
XFILLER_50_261 vdd vss gf180mcu_fd_sc_mcu7t5v0__fillcap_4
X_6759_ as2650.r123_2\[0\]\[6\] _2154_ _2185_ _2186_ vdd vss gf180mcu_fd_sc_mcu7t5v0__oai21_1
XFILLER_17_1273 vdd vss gf180mcu_fd_sc_mcu7t5v0__fillcap_4
XANTENNA__4403__I as2650.cycle\[2\] vdd vss gf180mcu_fd_sc_mcu7t5v0__antenna
XANTENNA__6381__A4 _1810_ vdd vss gf180mcu_fd_sc_mcu7t5v0__antenna
XFILLER_109_525 vdd vss gf180mcu_fd_sc_mcu7t5v0__fill_2
XANTENNA__6118__A1 _1260_ vdd vss gf180mcu_fd_sc_mcu7t5v0__antenna
XFILLER_104_1254 vdd vss gf180mcu_fd_sc_mcu7t5v0__fill_2
XFILLER_100_1107 vdd vss gf180mcu_fd_sc_mcu7t5v0__fill_1
XFILLER_100_1129 vdd vss gf180mcu_fd_sc_mcu7t5v0__fill_1
XFILLER_136_366 vdd vss gf180mcu_fd_sc_mcu7t5v0__fillcap_4
XFILLER_104_1298 vdd vss gf180mcu_fd_sc_mcu7t5v0__fillcap_4
X_8429_ _3731_ _3732_ vdd vss gf180mcu_fd_sc_mcu7t5v0__clkbuf_1
XFILLER_87_1249 vdd vss gf180mcu_fd_sc_mcu7t5v0__fill_2
XFILLER_117_580 vdd vss gf180mcu_fd_sc_mcu7t5v0__fill_1
XFILLER_3_847 vdd vss gf180mcu_fd_sc_mcu7t5v0__fillcap_4
XFILLER_65_1525 vdd vss gf180mcu_fd_sc_mcu7t5v0__fill_2
XANTENNA__7618__A1 _2943_ vdd vss gf180mcu_fd_sc_mcu7t5v0__antenna
XFILLER_78_637 vdd vss gf180mcu_fd_sc_mcu7t5v0__fillcap_16
XFILLER_144_53 vdd vss gf180mcu_fd_sc_mcu7t5v0__fillcap_4
XANTENNA__8822__CLK clknet_leaf_49_wb_clk_i vdd vss gf180mcu_fd_sc_mcu7t5v0__antenna
XFILLER_93_607 vdd vss gf180mcu_fd_sc_mcu7t5v0__fillcap_16
XFILLER_144_97 vdd vss gf180mcu_fd_sc_mcu7t5v0__fill_2
XFILLER_24_1244 vdd vss gf180mcu_fd_sc_mcu7t5v0__fillcap_64
XFILLER_65_309 vdd vss gf180mcu_fd_sc_mcu7t5v0__fill_2
XFILLER_111_1214 vdd vss gf180mcu_fd_sc_mcu7t5v0__fill_2
XFILLER_58_361 vdd vss gf180mcu_fd_sc_mcu7t5v0__fillcap_4
XFILLER_98_1312 vdd vss gf180mcu_fd_sc_mcu7t5v0__fill_1
XTAP_3010 vdd vss gf180mcu_fd_sc_mcu7t5v0__filltie
XFILLER_101_992 vdd vss gf180mcu_fd_sc_mcu7t5v0__fill_2
XFILLER_46_512 vdd vss gf180mcu_fd_sc_mcu7t5v0__fill_2
XFILLER_111_1225 vdd vss gf180mcu_fd_sc_mcu7t5v0__fill_2
XANTENNA__8043__A1 _1500_ vdd vss gf180mcu_fd_sc_mcu7t5v0__antenna