* NGSPICE file created from wrapped_as2650.ext - technology: gf180mcuC

* Black-box entry subcircuit for gf180mcu_fd_sc_mcu7t5v0__fill_2 abstract view
.subckt gf180mcu_fd_sc_mcu7t5v0__fill_2 VDD VSS
.ends

* Black-box entry subcircuit for gf180mcu_fd_sc_mcu7t5v0__antenna abstract view
.subckt gf180mcu_fd_sc_mcu7t5v0__antenna I VDD VSS
.ends

* Black-box entry subcircuit for gf180mcu_fd_sc_mcu7t5v0__fillcap_8 abstract view
.subckt gf180mcu_fd_sc_mcu7t5v0__fillcap_8 VDD VSS
.ends

* Black-box entry subcircuit for gf180mcu_fd_sc_mcu7t5v0__fillcap_64 abstract view
.subckt gf180mcu_fd_sc_mcu7t5v0__fillcap_64 VDD VSS
.ends

* Black-box entry subcircuit for gf180mcu_fd_sc_mcu7t5v0__nand2_1 abstract view
.subckt gf180mcu_fd_sc_mcu7t5v0__nand2_1 A1 A2 ZN VDD VSS
.ends

* Black-box entry subcircuit for gf180mcu_fd_sc_mcu7t5v0__fill_1 abstract view
.subckt gf180mcu_fd_sc_mcu7t5v0__fill_1 VDD VSS
.ends

* Black-box entry subcircuit for gf180mcu_fd_sc_mcu7t5v0__clkbuf_1 abstract view
.subckt gf180mcu_fd_sc_mcu7t5v0__clkbuf_1 I Z VDD VSS
.ends

* Black-box entry subcircuit for gf180mcu_fd_sc_mcu7t5v0__aoi21_1 abstract view
.subckt gf180mcu_fd_sc_mcu7t5v0__aoi21_1 A1 A2 B ZN VDD VSS
.ends

* Black-box entry subcircuit for gf180mcu_fd_sc_mcu7t5v0__fillcap_4 abstract view
.subckt gf180mcu_fd_sc_mcu7t5v0__fillcap_4 VDD VSS
.ends

* Black-box entry subcircuit for gf180mcu_fd_sc_mcu7t5v0__fillcap_16 abstract view
.subckt gf180mcu_fd_sc_mcu7t5v0__fillcap_16 VDD VSS
.ends

* Black-box entry subcircuit for gf180mcu_fd_sc_mcu7t5v0__oai211_1 abstract view
.subckt gf180mcu_fd_sc_mcu7t5v0__oai211_1 A1 A2 B C ZN VDD VSS
.ends

* Black-box entry subcircuit for gf180mcu_fd_sc_mcu7t5v0__fillcap_32 abstract view
.subckt gf180mcu_fd_sc_mcu7t5v0__fillcap_32 VDD VSS
.ends

* Black-box entry subcircuit for gf180mcu_fd_sc_mcu7t5v0__nand3_1 abstract view
.subckt gf180mcu_fd_sc_mcu7t5v0__nand3_1 A1 A2 A3 ZN VDD VSS
.ends

* Black-box entry subcircuit for gf180mcu_fd_sc_mcu7t5v0__clkbuf_2 abstract view
.subckt gf180mcu_fd_sc_mcu7t5v0__clkbuf_2 I Z VDD VSS
.ends

* Black-box entry subcircuit for gf180mcu_fd_sc_mcu7t5v0__buf_1 abstract view
.subckt gf180mcu_fd_sc_mcu7t5v0__buf_1 I Z VDD VSS
.ends

* Black-box entry subcircuit for gf180mcu_fd_sc_mcu7t5v0__aoi211_1 abstract view
.subckt gf180mcu_fd_sc_mcu7t5v0__aoi211_1 A1 A2 B C ZN VDD VSS
.ends

* Black-box entry subcircuit for gf180mcu_fd_sc_mcu7t5v0__filltie abstract view
.subckt gf180mcu_fd_sc_mcu7t5v0__filltie VDD VSS
.ends

* Black-box entry subcircuit for gf180mcu_fd_sc_mcu7t5v0__xor3_1 abstract view
.subckt gf180mcu_fd_sc_mcu7t5v0__xor3_1 A1 A2 A3 Z VDD VSS
.ends

* Black-box entry subcircuit for gf180mcu_fd_sc_mcu7t5v0__nor2_1 abstract view
.subckt gf180mcu_fd_sc_mcu7t5v0__nor2_1 A1 A2 ZN VDD VSS
.ends

* Black-box entry subcircuit for gf180mcu_fd_sc_mcu7t5v0__aoi21_2 abstract view
.subckt gf180mcu_fd_sc_mcu7t5v0__aoi21_2 A1 A2 B ZN VDD VSS
.ends

* Black-box entry subcircuit for gf180mcu_fd_sc_mcu7t5v0__nor3_1 abstract view
.subckt gf180mcu_fd_sc_mcu7t5v0__nor3_1 A1 A2 A3 ZN VDD VSS
.ends

* Black-box entry subcircuit for gf180mcu_fd_sc_mcu7t5v0__dffq_1 abstract view
.subckt gf180mcu_fd_sc_mcu7t5v0__dffq_1 D CLK Q VDD VSS
.ends

* Black-box entry subcircuit for gf180mcu_fd_sc_mcu7t5v0__xor2_1 abstract view
.subckt gf180mcu_fd_sc_mcu7t5v0__xor2_1 A1 A2 Z VDD VSS
.ends

* Black-box entry subcircuit for gf180mcu_fd_sc_mcu7t5v0__oai21_1 abstract view
.subckt gf180mcu_fd_sc_mcu7t5v0__oai21_1 A1 A2 B ZN VDD VSS
.ends

* Black-box entry subcircuit for gf180mcu_fd_sc_mcu7t5v0__oai32_1 abstract view
.subckt gf180mcu_fd_sc_mcu7t5v0__oai32_1 A1 A2 A3 B1 B2 ZN VDD VSS
.ends

* Black-box entry subcircuit for gf180mcu_fd_sc_mcu7t5v0__aoi22_1 abstract view
.subckt gf180mcu_fd_sc_mcu7t5v0__aoi22_1 A1 A2 B1 B2 ZN VDD VSS
.ends

* Black-box entry subcircuit for gf180mcu_fd_sc_mcu7t5v0__aoi222_2 abstract view
.subckt gf180mcu_fd_sc_mcu7t5v0__aoi222_2 A1 A2 B1 B2 C1 C2 ZN VDD VSS
.ends

* Black-box entry subcircuit for gf180mcu_fd_sc_mcu7t5v0__oai221_1 abstract view
.subckt gf180mcu_fd_sc_mcu7t5v0__oai221_1 A1 A2 B1 B2 C ZN VDD VSS
.ends

* Black-box entry subcircuit for gf180mcu_fd_sc_mcu7t5v0__nand4_4 abstract view
.subckt gf180mcu_fd_sc_mcu7t5v0__nand4_4 A1 A2 A3 A4 ZN VDD VSS
.ends

* Black-box entry subcircuit for gf180mcu_fd_sc_mcu7t5v0__or4_1 abstract view
.subckt gf180mcu_fd_sc_mcu7t5v0__or4_1 A1 A2 A3 A4 Z VDD VSS
.ends

* Black-box entry subcircuit for gf180mcu_fd_sc_mcu7t5v0__and4_1 abstract view
.subckt gf180mcu_fd_sc_mcu7t5v0__and4_1 A1 A2 A3 A4 Z VDD VSS
.ends

* Black-box entry subcircuit for gf180mcu_fd_sc_mcu7t5v0__aoi221_1 abstract view
.subckt gf180mcu_fd_sc_mcu7t5v0__aoi221_1 A1 A2 B1 B2 C ZN VDD VSS
.ends

* Black-box entry subcircuit for gf180mcu_fd_sc_mcu7t5v0__or2_1 abstract view
.subckt gf180mcu_fd_sc_mcu7t5v0__or2_1 A1 A2 Z VDD VSS
.ends

* Black-box entry subcircuit for gf180mcu_fd_sc_mcu7t5v0__aoi22_2 abstract view
.subckt gf180mcu_fd_sc_mcu7t5v0__aoi22_2 A1 A2 B1 B2 ZN VDD VSS
.ends

* Black-box entry subcircuit for gf180mcu_fd_sc_mcu7t5v0__nor4_4 abstract view
.subckt gf180mcu_fd_sc_mcu7t5v0__nor4_4 A1 A2 A3 A4 ZN VDD VSS
.ends

* Black-box entry subcircuit for gf180mcu_fd_sc_mcu7t5v0__clkbuf_16 abstract view
.subckt gf180mcu_fd_sc_mcu7t5v0__clkbuf_16 I Z VDD VSS
.ends

* Black-box entry subcircuit for gf180mcu_fd_sc_mcu7t5v0__clkbuf_3 abstract view
.subckt gf180mcu_fd_sc_mcu7t5v0__clkbuf_3 I Z VDD VSS
.ends

* Black-box entry subcircuit for gf180mcu_fd_sc_mcu7t5v0__endcap abstract view
.subckt gf180mcu_fd_sc_mcu7t5v0__endcap VDD VSS
.ends

* Black-box entry subcircuit for gf180mcu_fd_sc_mcu7t5v0__xnor2_1 abstract view
.subckt gf180mcu_fd_sc_mcu7t5v0__xnor2_1 A1 A2 ZN VDD VSS
.ends

* Black-box entry subcircuit for gf180mcu_fd_sc_mcu7t5v0__oai31_2 abstract view
.subckt gf180mcu_fd_sc_mcu7t5v0__oai31_2 A1 A2 A3 B ZN VDD VSS
.ends

* Black-box entry subcircuit for gf180mcu_fd_sc_mcu7t5v0__clkinv_1 abstract view
.subckt gf180mcu_fd_sc_mcu7t5v0__clkinv_1 I ZN VDD VSS
.ends

* Black-box entry subcircuit for gf180mcu_fd_sc_mcu7t5v0__oai221_2 abstract view
.subckt gf180mcu_fd_sc_mcu7t5v0__oai221_2 A1 A2 B1 B2 C ZN VDD VSS
.ends

* Black-box entry subcircuit for gf180mcu_fd_sc_mcu7t5v0__nor3_2 abstract view
.subckt gf180mcu_fd_sc_mcu7t5v0__nor3_2 A1 A2 A3 ZN VDD VSS
.ends

* Black-box entry subcircuit for gf180mcu_fd_sc_mcu7t5v0__aoi211_2 abstract view
.subckt gf180mcu_fd_sc_mcu7t5v0__aoi211_2 A1 A2 B C ZN VDD VSS
.ends

* Black-box entry subcircuit for gf180mcu_fd_sc_mcu7t5v0__and3_1 abstract view
.subckt gf180mcu_fd_sc_mcu7t5v0__and3_1 A1 A2 A3 Z VDD VSS
.ends

* Black-box entry subcircuit for gf180mcu_fd_sc_mcu7t5v0__nand3_2 abstract view
.subckt gf180mcu_fd_sc_mcu7t5v0__nand3_2 A1 A2 A3 ZN VDD VSS
.ends

* Black-box entry subcircuit for gf180mcu_fd_sc_mcu7t5v0__nand4_1 abstract view
.subckt gf180mcu_fd_sc_mcu7t5v0__nand4_1 A1 A2 A3 A4 ZN VDD VSS
.ends

* Black-box entry subcircuit for gf180mcu_fd_sc_mcu7t5v0__oai22_1 abstract view
.subckt gf180mcu_fd_sc_mcu7t5v0__oai22_1 A1 A2 B1 B2 ZN VDD VSS
.ends

* Black-box entry subcircuit for gf180mcu_fd_sc_mcu7t5v0__and3_2 abstract view
.subckt gf180mcu_fd_sc_mcu7t5v0__and3_2 A1 A2 A3 Z VDD VSS
.ends

* Black-box entry subcircuit for gf180mcu_fd_sc_mcu7t5v0__and2_1 abstract view
.subckt gf180mcu_fd_sc_mcu7t5v0__and2_1 A1 A2 Z VDD VSS
.ends

* Black-box entry subcircuit for gf180mcu_fd_sc_mcu7t5v0__dffq_2 abstract view
.subckt gf180mcu_fd_sc_mcu7t5v0__dffq_2 D CLK Q VDD VSS
.ends

* Black-box entry subcircuit for gf180mcu_fd_sc_mcu7t5v0__or3_1 abstract view
.subckt gf180mcu_fd_sc_mcu7t5v0__or3_1 A1 A2 A3 Z VDD VSS
.ends

* Black-box entry subcircuit for gf180mcu_fd_sc_mcu7t5v0__oai31_1 abstract view
.subckt gf180mcu_fd_sc_mcu7t5v0__oai31_1 A1 A2 A3 B ZN VDD VSS
.ends

* Black-box entry subcircuit for gf180mcu_fd_sc_mcu7t5v0__buf_2 abstract view
.subckt gf180mcu_fd_sc_mcu7t5v0__buf_2 I Z VDD VSS
.ends

* Black-box entry subcircuit for gf180mcu_fd_sc_mcu7t5v0__oai222_1 abstract view
.subckt gf180mcu_fd_sc_mcu7t5v0__oai222_1 A1 A2 B1 B2 C1 C2 ZN VDD VSS
.ends

* Black-box entry subcircuit for gf180mcu_fd_sc_mcu7t5v0__nor4_1 abstract view
.subckt gf180mcu_fd_sc_mcu7t5v0__nor4_1 A1 A2 A3 A4 ZN VDD VSS
.ends

* Black-box entry subcircuit for gf180mcu_fd_sc_mcu7t5v0__mux2_2 abstract view
.subckt gf180mcu_fd_sc_mcu7t5v0__mux2_2 I0 I1 S Z VDD VSS
.ends

* Black-box entry subcircuit for gf180mcu_fd_sc_mcu7t5v0__mux4_1 abstract view
.subckt gf180mcu_fd_sc_mcu7t5v0__mux4_1 I0 I1 I2 I3 S0 S1 Z VDD VSS
.ends

* Black-box entry subcircuit for gf180mcu_fd_sc_mcu7t5v0__nand4_2 abstract view
.subckt gf180mcu_fd_sc_mcu7t5v0__nand4_2 A1 A2 A3 A4 ZN VDD VSS
.ends

* Black-box entry subcircuit for gf180mcu_fd_sc_mcu7t5v0__aoi222_1 abstract view
.subckt gf180mcu_fd_sc_mcu7t5v0__aoi222_1 A1 A2 B1 B2 C1 C2 ZN VDD VSS
.ends

* Black-box entry subcircuit for gf180mcu_fd_sc_mcu7t5v0__oai33_1 abstract view
.subckt gf180mcu_fd_sc_mcu7t5v0__oai33_1 A1 A2 A3 B1 B2 B3 ZN VDD VSS
.ends

* Black-box entry subcircuit for gf180mcu_fd_sc_mcu7t5v0__clkbuf_8 abstract view
.subckt gf180mcu_fd_sc_mcu7t5v0__clkbuf_8 I Z VDD VSS
.ends

* Black-box entry subcircuit for gf180mcu_fd_sc_mcu7t5v0__aoi221_2 abstract view
.subckt gf180mcu_fd_sc_mcu7t5v0__aoi221_2 A1 A2 B1 B2 C ZN VDD VSS
.ends

* Black-box entry subcircuit for gf180mcu_fd_sc_mcu7t5v0__oai21_2 abstract view
.subckt gf180mcu_fd_sc_mcu7t5v0__oai21_2 A1 A2 B ZN VDD VSS
.ends

* Black-box entry subcircuit for gf180mcu_fd_sc_mcu7t5v0__nor2_2 abstract view
.subckt gf180mcu_fd_sc_mcu7t5v0__nor2_2 A1 A2 ZN VDD VSS
.ends

* Black-box entry subcircuit for gf180mcu_fd_sc_mcu7t5v0__xnor3_1 abstract view
.subckt gf180mcu_fd_sc_mcu7t5v0__xnor3_1 A1 A2 A3 ZN VDD VSS
.ends

* Black-box entry subcircuit for gf180mcu_fd_sc_mcu7t5v0__nor4_2 abstract view
.subckt gf180mcu_fd_sc_mcu7t5v0__nor4_2 A1 A2 A3 A4 ZN VDD VSS
.ends

* Black-box entry subcircuit for gf180mcu_fd_sc_mcu7t5v0__inv_1 abstract view
.subckt gf180mcu_fd_sc_mcu7t5v0__inv_1 I ZN VDD VSS
.ends

* Black-box entry subcircuit for gf180mcu_fd_sc_mcu7t5v0__clkinv_2 abstract view
.subckt gf180mcu_fd_sc_mcu7t5v0__clkinv_2 I ZN VDD VSS
.ends

* Black-box entry subcircuit for gf180mcu_fd_sc_mcu7t5v0__nand2_2 abstract view
.subckt gf180mcu_fd_sc_mcu7t5v0__nand2_2 A1 A2 ZN VDD VSS
.ends

* Black-box entry subcircuit for gf180mcu_fd_sc_mcu7t5v0__aoi221_4 abstract view
.subckt gf180mcu_fd_sc_mcu7t5v0__aoi221_4 A1 A2 B1 B2 C ZN VDD VSS
.ends

* Black-box entry subcircuit for gf180mcu_fd_sc_mcu7t5v0__dlyb_1 abstract view
.subckt gf180mcu_fd_sc_mcu7t5v0__dlyb_1 I Z VDD VSS
.ends

* Black-box entry subcircuit for gf180mcu_fd_sc_mcu7t5v0__oai211_2 abstract view
.subckt gf180mcu_fd_sc_mcu7t5v0__oai211_2 A1 A2 B C ZN VDD VSS
.ends

* Black-box entry subcircuit for gf180mcu_fd_sc_mcu7t5v0__tieh abstract view
.subckt gf180mcu_fd_sc_mcu7t5v0__tieh Z VDD VSS
.ends

* Black-box entry subcircuit for gf180mcu_fd_sc_mcu7t5v0__aoi211_4 abstract view
.subckt gf180mcu_fd_sc_mcu7t5v0__aoi211_4 A1 A2 B C ZN VDD VSS
.ends

* Black-box entry subcircuit for gf180mcu_fd_sc_mcu7t5v0__tiel abstract view
.subckt gf180mcu_fd_sc_mcu7t5v0__tiel ZN VDD VSS
.ends

* Black-box entry subcircuit for gf180mcu_fd_sc_mcu7t5v0__nor3_4 abstract view
.subckt gf180mcu_fd_sc_mcu7t5v0__nor3_4 A1 A2 A3 ZN VDD VSS
.ends

* Black-box entry subcircuit for gf180mcu_fd_sc_mcu7t5v0__and2_2 abstract view
.subckt gf180mcu_fd_sc_mcu7t5v0__and2_2 A1 A2 Z VDD VSS
.ends

* Black-box entry subcircuit for gf180mcu_fd_sc_mcu7t5v0__dlyc_1 abstract view
.subckt gf180mcu_fd_sc_mcu7t5v0__dlyc_1 I Z VDD VSS
.ends

* Black-box entry subcircuit for gf180mcu_fd_sc_mcu7t5v0__dlyd_1 abstract view
.subckt gf180mcu_fd_sc_mcu7t5v0__dlyd_1 I Z VDD VSS
.ends

* Black-box entry subcircuit for gf180mcu_fd_sc_mcu7t5v0__nor2_4 abstract view
.subckt gf180mcu_fd_sc_mcu7t5v0__nor2_4 A1 A2 ZN VDD VSS
.ends

* Black-box entry subcircuit for gf180mcu_fd_sc_mcu7t5v0__oai211_4 abstract view
.subckt gf180mcu_fd_sc_mcu7t5v0__oai211_4 A1 A2 B C ZN VDD VSS
.ends

* Black-box entry subcircuit for gf180mcu_fd_sc_mcu7t5v0__oai22_4 abstract view
.subckt gf180mcu_fd_sc_mcu7t5v0__oai22_4 A1 A2 B1 B2 ZN VDD VSS
.ends

* Black-box entry subcircuit for gf180mcu_fd_sc_mcu7t5v0__xor2_2 abstract view
.subckt gf180mcu_fd_sc_mcu7t5v0__xor2_2 A1 A2 Z VDD VSS
.ends

* Black-box entry subcircuit for gf180mcu_fd_sc_mcu7t5v0__nand3_4 abstract view
.subckt gf180mcu_fd_sc_mcu7t5v0__nand3_4 A1 A2 A3 ZN VDD VSS
.ends

* Black-box entry subcircuit for gf180mcu_fd_sc_mcu7t5v0__xnor2_2 abstract view
.subckt gf180mcu_fd_sc_mcu7t5v0__xnor2_2 A1 A2 ZN VDD VSS
.ends

* Black-box entry subcircuit for gf180mcu_fd_sc_mcu7t5v0__oai31_4 abstract view
.subckt gf180mcu_fd_sc_mcu7t5v0__oai31_4 A1 A2 A3 B ZN VDD VSS
.ends

* Black-box entry subcircuit for gf180mcu_fd_sc_mcu7t5v0__oai22_2 abstract view
.subckt gf180mcu_fd_sc_mcu7t5v0__oai22_2 A1 A2 B1 B2 ZN VDD VSS
.ends

* Black-box entry subcircuit for gf180mcu_fd_sc_mcu7t5v0__oai221_4 abstract view
.subckt gf180mcu_fd_sc_mcu7t5v0__oai221_4 A1 A2 B1 B2 C ZN VDD VSS
.ends

.subckt wrapped_as2650 io_in[0] io_in[10] io_in[11] io_in[12] io_in[13] io_in[14]
+ io_in[15] io_in[16] io_in[17] io_in[18] io_in[19] io_in[1] io_in[20] io_in[21] io_in[22]
+ io_in[23] io_in[24] io_in[25] io_in[26] io_in[27] io_in[28] io_in[29] io_in[2] io_in[30]
+ io_in[31] io_in[32] io_in[33] io_in[34] io_in[35] io_in[36] io_in[37] io_in[3] io_in[4]
+ io_in[5] io_in[6] io_in[7] io_in[8] io_in[9] io_oeb[0] io_oeb[10] io_oeb[11] io_oeb[12]
+ io_oeb[13] io_oeb[14] io_oeb[15] io_oeb[16] io_oeb[17] io_oeb[18] io_oeb[19] io_oeb[1]
+ io_oeb[20] io_oeb[21] io_oeb[22] io_oeb[23] io_oeb[24] io_oeb[25] io_oeb[26] io_oeb[27]
+ io_oeb[28] io_oeb[29] io_oeb[2] io_oeb[30] io_oeb[31] io_oeb[32] io_oeb[33] io_oeb[34]
+ io_oeb[35] io_oeb[36] io_oeb[37] io_oeb[3] io_oeb[4] io_oeb[5] io_oeb[6] io_oeb[7]
+ io_oeb[8] io_oeb[9] io_out[0] io_out[10] io_out[11] io_out[12] io_out[13] io_out[14]
+ io_out[15] io_out[16] io_out[17] io_out[18] io_out[19] io_out[1] io_out[20] io_out[21]
+ io_out[22] io_out[23] io_out[24] io_out[25] io_out[26] io_out[27] io_out[28] io_out[29]
+ io_out[2] io_out[30] io_out[31] io_out[32] io_out[33] io_out[34] io_out[35] io_out[36]
+ io_out[37] io_out[3] io_out[4] io_out[5] io_out[6] io_out[7] io_out[8] io_out[9]
+ vdd vss wb_clk_i wb_rst_i
XFILLER_79_391 vdd vss gf180mcu_fd_sc_mcu7t5v0__fill_2
XANTENNA__6209__A2 _1565_ vdd vss gf180mcu_fd_sc_mcu7t5v0__antenna
XANTENNA__7406__A1 _2656_ vdd vss gf180mcu_fd_sc_mcu7t5v0__antenna
XFILLER_100_149 vdd vss gf180mcu_fd_sc_mcu7t5v0__fill_2
XFILLER_80_1287 vdd vss gf180mcu_fd_sc_mcu7t5v0__fill_2
XFILLER_55_715 vdd vss gf180mcu_fd_sc_mcu7t5v0__fillcap_8
XFILLER_94_361 vdd vss gf180mcu_fd_sc_mcu7t5v0__fill_2
XFILLER_67_586 vdd vss gf180mcu_fd_sc_mcu7t5v0__fill_2
XFILLER_27_428 vdd vss gf180mcu_fd_sc_mcu7t5v0__fillcap_64
X_7963_ _2537_ _3199_ _3200_ vdd vss gf180mcu_fd_sc_mcu7t5v0__nand2_1
XFILLER_82_534 vdd vss gf180mcu_fd_sc_mcu7t5v0__fill_1
XFILLER_54_247 vdd vss gf180mcu_fd_sc_mcu7t5v0__fill_1
X_6914_ _2212_ _2213_ vdd vss gf180mcu_fd_sc_mcu7t5v0__clkbuf_1
XANTENNA__6425__I _1751_ vdd vss gf180mcu_fd_sc_mcu7t5v0__antenna
XFILLER_82_578 vdd vss gf180mcu_fd_sc_mcu7t5v0__fill_2
X_7894_ _2470_ _3131_ _3133_ _3134_ vdd vss gf180mcu_fd_sc_mcu7t5v0__aoi21_1
XFILLER_70_729 vdd vss gf180mcu_fd_sc_mcu7t5v0__fillcap_8
XANTENNA__7709__A2 _2939_ vdd vss gf180mcu_fd_sc_mcu7t5v0__antenna
XFILLER_51_932 vdd vss gf180mcu_fd_sc_mcu7t5v0__fillcap_4
XFILLER_23_634 vdd vss gf180mcu_fd_sc_mcu7t5v0__fillcap_4
XFILLER_1_1490 vdd vss gf180mcu_fd_sc_mcu7t5v0__fill_1
X_6845_ _0804_ _0815_ _1832_ _2161_ vdd vss gf180mcu_fd_sc_mcu7t5v0__aoi21_1
XFILLER_126_1137 vdd vss gf180mcu_fd_sc_mcu7t5v0__fillcap_4
XANTENNA__8382__A2 _3582_ vdd vss gf180mcu_fd_sc_mcu7t5v0__antenna
X_6776_ _2071_ _2094_ _2095_ vdd vss gf180mcu_fd_sc_mcu7t5v0__nand2_1
XANTENNA__5196__A2 _4295_ vdd vss gf180mcu_fd_sc_mcu7t5v0__antenna
XFILLER_108_1560 vdd vss gf180mcu_fd_sc_mcu7t5v0__fillcap_16
XANTENNA__7590__B1 _2695_ vdd vss gf180mcu_fd_sc_mcu7t5v0__antenna
XFILLER_91_1372 vdd vss gf180mcu_fd_sc_mcu7t5v0__fillcap_4
X_8515_ _1657_ _3484_ _3707_ _3711_ _3712_ vdd vss gf180mcu_fd_sc_mcu7t5v0__oai211_1
XFILLER_104_1413 vdd vss gf180mcu_fd_sc_mcu7t5v0__fillcap_32
X_5727_ _1149_ _1150_ vdd vss gf180mcu_fd_sc_mcu7t5v0__clkbuf_1
XANTENNA__4943__A2 _0383_ vdd vss gf180mcu_fd_sc_mcu7t5v0__antenna
XFILLER_136_503 vdd vss gf180mcu_fd_sc_mcu7t5v0__fill_2
XFILLER_109_728 vdd vss gf180mcu_fd_sc_mcu7t5v0__fill_2
XANTENNA__8134__A2 _0873_ vdd vss gf180mcu_fd_sc_mcu7t5v0__antenna
XFILLER_104_1457 vdd vss gf180mcu_fd_sc_mcu7t5v0__fillcap_64
X_8446_ _3640_ _3641_ _3644_ _3645_ vdd vss gf180mcu_fd_sc_mcu7t5v0__nand3_1
X_5658_ as2650.pc\[8\] _1088_ vdd vss gf180mcu_fd_sc_mcu7t5v0__clkbuf_2
XFILLER_108_238 vdd vss gf180mcu_fd_sc_mcu7t5v0__fill_1
XANTENNA__7893__A1 _2781_ vdd vss gf180mcu_fd_sc_mcu7t5v0__antenna
X_4609_ _4154_ _4190_ vdd vss gf180mcu_fd_sc_mcu7t5v0__buf_1
X_8377_ _1407_ _3572_ _3577_ _2622_ _3578_ vdd vss gf180mcu_fd_sc_mcu7t5v0__aoi211_1
XFILLER_105_901 vdd vss gf180mcu_fd_sc_mcu7t5v0__fill_2
XFILLER_102_1170 vdd vss gf180mcu_fd_sc_mcu7t5v0__fill_1
XFILLER_117_761 vdd vss gf180mcu_fd_sc_mcu7t5v0__fill_2
XFILLER_11_1064 vdd vss gf180mcu_fd_sc_mcu7t5v0__fill_1
X_5589_ _0589_ _1022_ vdd vss gf180mcu_fd_sc_mcu7t5v0__buf_1
XFILLER_117_783 vdd vss gf180mcu_fd_sc_mcu7t5v0__fill_1
XFILLER_117_22 vdd vss gf180mcu_fd_sc_mcu7t5v0__fill_2
X_7328_ _1449_ _2586_ vdd vss gf180mcu_fd_sc_mcu7t5v0__buf_1
XFILLER_46_1105 vdd vss gf180mcu_fd_sc_mcu7t5v0__fillcap_4
XFILLER_89_111 vdd vss gf180mcu_fd_sc_mcu7t5v0__fillcap_4
XFILLER_144_591 vdd vss gf180mcu_fd_sc_mcu7t5v0__fillcap_4
XFILLER_46_1116 vdd vss gf180mcu_fd_sc_mcu7t5v0__fill_2
XFILLER_116_293 vdd vss gf180mcu_fd_sc_mcu7t5v0__fill_2
XANTENNA__4829__B _4408_ vdd vss gf180mcu_fd_sc_mcu7t5v0__antenna
XFILLER_89_133 vdd vss gf180mcu_fd_sc_mcu7t5v0__fill_2
XANTENNA__7645__A1 _4307_ vdd vss gf180mcu_fd_sc_mcu7t5v0__antenna
XFILLER_78_818 vdd vss gf180mcu_fd_sc_mcu7t5v0__fillcap_16
XFILLER_89_144 vdd vss gf180mcu_fd_sc_mcu7t5v0__fill_1
X_7259_ _1280_ _2521_ _2522_ vdd vss gf180mcu_fd_sc_mcu7t5v0__nand2_1
XFILLER_77_306 vdd vss gf180mcu_fd_sc_mcu7t5v0__fillcap_4
XFILLER_131_263 vdd vss gf180mcu_fd_sc_mcu7t5v0__fillcap_4
XANTENNA__6999__A3 _2289_ vdd vss gf180mcu_fd_sc_mcu7t5v0__antenna
XFILLER_120_937 vdd vss gf180mcu_fd_sc_mcu7t5v0__fill_2
XFILLER_120_948 vdd vss gf180mcu_fd_sc_mcu7t5v0__fill_2
XFILLER_58_531 vdd vss gf180mcu_fd_sc_mcu7t5v0__fill_1
XFILLER_115_1564 vdd vss gf180mcu_fd_sc_mcu7t5v0__fillcap_16
XFILLER_19_918 vdd vss gf180mcu_fd_sc_mcu7t5v0__fillcap_4
XANTENNA__4474__A4 _4054_ vdd vss gf180mcu_fd_sc_mcu7t5v0__antenna
XFILLER_92_309 vdd vss gf180mcu_fd_sc_mcu7t5v0__fill_2
XTAP_3202 vdd vss gf180mcu_fd_sc_mcu7t5v0__filltie
XFILLER_58_575 vdd vss gf180mcu_fd_sc_mcu7t5v0__fillcap_4
XTAP_3213 vdd vss gf180mcu_fd_sc_mcu7t5v0__filltie
XTAP_3224 vdd vss gf180mcu_fd_sc_mcu7t5v0__filltie
XANTENNA__7948__A2 _3185_ vdd vss gf180mcu_fd_sc_mcu7t5v0__antenna
XFILLER_85_372 vdd vss gf180mcu_fd_sc_mcu7t5v0__fill_2
XTAP_3235 vdd vss gf180mcu_fd_sc_mcu7t5v0__filltie
XFILLER_93_36 vdd vss gf180mcu_fd_sc_mcu7t5v0__fillcap_4
XTAP_2501 vdd vss gf180mcu_fd_sc_mcu7t5v0__filltie
XTAP_3246 vdd vss gf180mcu_fd_sc_mcu7t5v0__filltie
XANTENNA_output37_I net37 vdd vss gf180mcu_fd_sc_mcu7t5v0__antenna
XTAP_3257 vdd vss gf180mcu_fd_sc_mcu7t5v0__filltie
XTAP_2512 vdd vss gf180mcu_fd_sc_mcu7t5v0__filltie
XTAP_3268 vdd vss gf180mcu_fd_sc_mcu7t5v0__filltie
XTAP_2523 vdd vss gf180mcu_fd_sc_mcu7t5v0__filltie
XTAP_3279 vdd vss gf180mcu_fd_sc_mcu7t5v0__filltie
XFILLER_61_707 vdd vss gf180mcu_fd_sc_mcu7t5v0__fill_2
XANTENNA__6335__I _1645_ vdd vss gf180mcu_fd_sc_mcu7t5v0__antenna
XTAP_2534 vdd vss gf180mcu_fd_sc_mcu7t5v0__filltie
XTAP_1800 vdd vss gf180mcu_fd_sc_mcu7t5v0__filltie
XTAP_2545 vdd vss gf180mcu_fd_sc_mcu7t5v0__filltie
XTAP_2556 vdd vss gf180mcu_fd_sc_mcu7t5v0__filltie
XFILLER_61_729 vdd vss gf180mcu_fd_sc_mcu7t5v0__fillcap_4
XTAP_1811 vdd vss gf180mcu_fd_sc_mcu7t5v0__filltie
XFILLER_42_910 vdd vss gf180mcu_fd_sc_mcu7t5v0__fill_2
XTAP_1822 vdd vss gf180mcu_fd_sc_mcu7t5v0__filltie
XTAP_2567 vdd vss gf180mcu_fd_sc_mcu7t5v0__filltie
XFILLER_54_781 vdd vss gf180mcu_fd_sc_mcu7t5v0__fill_1
XFILLER_96_1283 vdd vss gf180mcu_fd_sc_mcu7t5v0__fill_2
XTAP_2578 vdd vss gf180mcu_fd_sc_mcu7t5v0__filltie
XTAP_1833 vdd vss gf180mcu_fd_sc_mcu7t5v0__filltie
XTAP_2589 vdd vss gf180mcu_fd_sc_mcu7t5v0__filltie
XFILLER_60_239 vdd vss gf180mcu_fd_sc_mcu7t5v0__fill_2
XTAP_1844 vdd vss gf180mcu_fd_sc_mcu7t5v0__filltie
XFILLER_42_954 vdd vss gf180mcu_fd_sc_mcu7t5v0__fill_1
XTAP_1855 vdd vss gf180mcu_fd_sc_mcu7t5v0__filltie
XTAP_1866 vdd vss gf180mcu_fd_sc_mcu7t5v0__filltie
XFILLER_92_1147 vdd vss gf180mcu_fd_sc_mcu7t5v0__fill_2
XANTENNA__7176__A3 _1094_ vdd vss gf180mcu_fd_sc_mcu7t5v0__antenna
XFILLER_144_1237 vdd vss gf180mcu_fd_sc_mcu7t5v0__fillcap_4
XFILLER_13_144 vdd vss gf180mcu_fd_sc_mcu7t5v0__fillcap_64
XTAP_1877 vdd vss gf180mcu_fd_sc_mcu7t5v0__filltie
XFILLER_70_1401 vdd vss gf180mcu_fd_sc_mcu7t5v0__fill_2
XTAP_1888 vdd vss gf180mcu_fd_sc_mcu7t5v0__filltie
XTAP_1899 vdd vss gf180mcu_fd_sc_mcu7t5v0__filltie
XANTENNA__6384__A1 as2650.stack\[3\]\[3\] vdd vss gf180mcu_fd_sc_mcu7t5v0__antenna
XFILLER_144_1259 vdd vss gf180mcu_fd_sc_mcu7t5v0__fill_1
XFILLER_9_137 vdd vss gf180mcu_fd_sc_mcu7t5v0__fillcap_4
XANTENNA__7166__I _2437_ vdd vss gf180mcu_fd_sc_mcu7t5v0__antenna
XANTENNA__8125__A2 _3343_ vdd vss gf180mcu_fd_sc_mcu7t5v0__antenna
XFILLER_127_514 vdd vss gf180mcu_fd_sc_mcu7t5v0__fillcap_16
XFILLER_6_811 vdd vss gf180mcu_fd_sc_mcu7t5v0__fillcap_4
XANTENNA__6136__A1 _1265_ vdd vss gf180mcu_fd_sc_mcu7t5v0__antenna
XFILLER_115_709 vdd vss gf180mcu_fd_sc_mcu7t5v0__fill_1
XFILLER_5_354 vdd vss gf180mcu_fd_sc_mcu7t5v0__fill_1
XFILLER_108_783 vdd vss gf180mcu_fd_sc_mcu7t5v0__fillcap_16
XFILLER_9_1419 vdd vss gf180mcu_fd_sc_mcu7t5v0__fill_1
XFILLER_116_1328 vdd vss gf180mcu_fd_sc_mcu7t5v0__fill_2
XFILLER_111_948 vdd vss gf180mcu_fd_sc_mcu7t5v0__fill_2
XFILLER_122_285 vdd vss gf180mcu_fd_sc_mcu7t5v0__fill_2
XFILLER_49_520 vdd vss gf180mcu_fd_sc_mcu7t5v0__fill_2
XFILLER_110_436 vdd vss gf180mcu_fd_sc_mcu7t5v0__fill_1
XFILLER_27_1060 vdd vss gf180mcu_fd_sc_mcu7t5v0__fillcap_4
XFILLER_42_1525 vdd vss gf180mcu_fd_sc_mcu7t5v0__fill_1
XANTENNA__6954__B _2221_ vdd vss gf180mcu_fd_sc_mcu7t5v0__antenna
XFILLER_49_542 vdd vss gf180mcu_fd_sc_mcu7t5v0__fill_1
XFILLER_77_851 vdd vss gf180mcu_fd_sc_mcu7t5v0__fill_1
XANTENNA__5662__A3 _0884_ vdd vss gf180mcu_fd_sc_mcu7t5v0__antenna
XFILLER_97_1003 vdd vss gf180mcu_fd_sc_mcu7t5v0__fill_1
XFILLER_77_895 vdd vss gf180mcu_fd_sc_mcu7t5v0__fillcap_8
XANTENNA__4870__A1 _0299_ vdd vss gf180mcu_fd_sc_mcu7t5v0__antenna
XFILLER_97_1014 vdd vss gf180mcu_fd_sc_mcu7t5v0__fillcap_16
XFILLER_114_1096 vdd vss gf180mcu_fd_sc_mcu7t5v0__fillcap_4
XFILLER_64_534 vdd vss gf180mcu_fd_sc_mcu7t5v0__fill_1
XFILLER_76_394 vdd vss gf180mcu_fd_sc_mcu7t5v0__fill_1
XFILLER_64_545 vdd vss gf180mcu_fd_sc_mcu7t5v0__fillcap_4
XFILLER_36_247 vdd vss gf180mcu_fd_sc_mcu7t5v0__fill_1
XANTENNA__6245__I _1614_ vdd vss gf180mcu_fd_sc_mcu7t5v0__antenna
X_4960_ _4299_ _0403_ vdd vss gf180mcu_fd_sc_mcu7t5v0__buf_1
XANTENNA__4622__A1 _4202_ vdd vss gf180mcu_fd_sc_mcu7t5v0__antenna
XFILLER_75_1312 vdd vss gf180mcu_fd_sc_mcu7t5v0__fill_2
XFILLER_79_1481 vdd vss gf180mcu_fd_sc_mcu7t5v0__fill_2
XFILLER_75_1334 vdd vss gf180mcu_fd_sc_mcu7t5v0__fill_2
X_4891_ as2650.r0\[3\] _0335_ vdd vss gf180mcu_fd_sc_mcu7t5v0__clkbuf_1
XFILLER_60_751 vdd vss gf180mcu_fd_sc_mcu7t5v0__fill_2
XFILLER_71_1209 vdd vss gf180mcu_fd_sc_mcu7t5v0__fill_1
X_6630_ _0751_ _1951_ _1952_ vdd vss gf180mcu_fd_sc_mcu7t5v0__nand2_1
XFILLER_75_1389 vdd vss gf180mcu_fd_sc_mcu7t5v0__fill_2
XFILLER_34_1031 vdd vss gf180mcu_fd_sc_mcu7t5v0__fillcap_64
XFILLER_80_2 vdd vss gf180mcu_fd_sc_mcu7t5v0__fillcap_16
X_6561_ _0847_ _0850_ _1884_ vdd vss gf180mcu_fd_sc_mcu7t5v0__nand2_1
XFILLER_121_1012 vdd vss gf180mcu_fd_sc_mcu7t5v0__fill_2
X_8300_ _4393_ _4359_ _3502_ _3503_ vdd vss gf180mcu_fd_sc_mcu7t5v0__xor3_1
X_5512_ _0912_ _0949_ vdd vss gf180mcu_fd_sc_mcu7t5v0__clkbuf_1
XANTENNA__6127__A1 _1511_ vdd vss gf180mcu_fd_sc_mcu7t5v0__antenna
X_6492_ _1814_ _1815_ vdd vss gf180mcu_fd_sc_mcu7t5v0__clkbuf_1
XANTENNA__6127__B2 _4015_ vdd vss gf180mcu_fd_sc_mcu7t5v0__antenna
XFILLER_121_1067 vdd vss gf180mcu_fd_sc_mcu7t5v0__fillcap_32
X_8231_ as2650.stack\[7\]\[9\] _3440_ _3441_ vdd vss gf180mcu_fd_sc_mcu7t5v0__nor2_1
XFILLER_69_1127 vdd vss gf180mcu_fd_sc_mcu7t5v0__fillcap_4
XANTENNA__7875__A1 _2298_ vdd vss gf180mcu_fd_sc_mcu7t5v0__antenna
XFILLER_69_1138 vdd vss gf180mcu_fd_sc_mcu7t5v0__fill_1
X_5443_ _0880_ _0881_ vdd vss gf180mcu_fd_sc_mcu7t5v0__clkbuf_1
XANTENNA__4689__A1 _4267_ vdd vss gf180mcu_fd_sc_mcu7t5v0__antenna
XFILLER_103_1490 vdd vss gf180mcu_fd_sc_mcu7t5v0__fill_1
X_8162_ _1747_ _0973_ _1750_ _3389_ vdd vss gf180mcu_fd_sc_mcu7t5v0__nand3_1
XFILLER_86_1452 vdd vss gf180mcu_fd_sc_mcu7t5v0__fill_2
X_5374_ _0385_ _0807_ _0812_ _0813_ vdd vss gf180mcu_fd_sc_mcu7t5v0__aoi21_2
X_7113_ _2347_ _2384_ _2385_ vdd vss gf180mcu_fd_sc_mcu7t5v0__nand2_1
XANTENNA__7627__A1 _2832_ vdd vss gf180mcu_fd_sc_mcu7t5v0__antenna
XANTENNA__7627__B2 _2842_ vdd vss gf180mcu_fd_sc_mcu7t5v0__antenna
X_8093_ _2594_ _3324_ vdd vss gf180mcu_fd_sc_mcu7t5v0__buf_1
XFILLER_102_937 vdd vss gf180mcu_fd_sc_mcu7t5v0__fillcap_8
XFILLER_114_797 vdd vss gf180mcu_fd_sc_mcu7t5v0__fill_2
XFILLER_113_274 vdd vss gf180mcu_fd_sc_mcu7t5v0__fillcap_4
X_7044_ _2322_ _2324_ _2326_ _2327_ vdd vss gf180mcu_fd_sc_mcu7t5v0__nor3_1
XFILLER_101_425 vdd vss gf180mcu_fd_sc_mcu7t5v0__fill_1
XANTENNA__5102__A2 _0543_ vdd vss gf180mcu_fd_sc_mcu7t5v0__antenna
XFILLER_86_125 vdd vss gf180mcu_fd_sc_mcu7t5v0__fill_2
XFILLER_87_659 vdd vss gf180mcu_fd_sc_mcu7t5v0__fill_2
XFILLER_41_1013 vdd vss gf180mcu_fd_sc_mcu7t5v0__fill_2
XANTENNA__6850__A2 _1766_ vdd vss gf180mcu_fd_sc_mcu7t5v0__antenna
XFILLER_80_1084 vdd vss gf180mcu_fd_sc_mcu7t5v0__fillcap_4
XFILLER_95_670 vdd vss gf180mcu_fd_sc_mcu7t5v0__fill_1
XANTENNA__4861__A1 _4326_ vdd vss gf180mcu_fd_sc_mcu7t5v0__antenna
XFILLER_83_854 vdd vss gf180mcu_fd_sc_mcu7t5v0__fill_1
X_8995_ _0156_ clknet_leaf_12_wb_clk_i as2650.addr_buff\[1\] vdd vss gf180mcu_fd_sc_mcu7t5v0__dffq_1
XFILLER_55_567 vdd vss gf180mcu_fd_sc_mcu7t5v0__fill_1
XFILLER_76_1109 vdd vss gf180mcu_fd_sc_mcu7t5v0__fill_2
XFILLER_43_718 vdd vss gf180mcu_fd_sc_mcu7t5v0__fill_2
XFILLER_58_1521 vdd vss gf180mcu_fd_sc_mcu7t5v0__fillcap_4
XFILLER_43_729 vdd vss gf180mcu_fd_sc_mcu7t5v0__fill_2
XTAP_1107 vdd vss gf180mcu_fd_sc_mcu7t5v0__filltie
X_7946_ _1121_ _3155_ _3184_ vdd vss gf180mcu_fd_sc_mcu7t5v0__nand2_1
XTAP_1118 vdd vss gf180mcu_fd_sc_mcu7t5v0__filltie
XTAP_1129 vdd vss gf180mcu_fd_sc_mcu7t5v0__filltie
X_7877_ _3111_ _3116_ _3117_ vdd vss gf180mcu_fd_sc_mcu7t5v0__xor2_1
XFILLER_58_1576 vdd vss gf180mcu_fd_sc_mcu7t5v0__fillcap_4
XANTENNA__5994__I _1365_ vdd vss gf180mcu_fd_sc_mcu7t5v0__antenna
XANTENNA__8355__A2 _3532_ vdd vss gf180mcu_fd_sc_mcu7t5v0__antenna
XANTENNA__8370__I _4097_ vdd vss gf180mcu_fd_sc_mcu7t5v0__antenna
XFILLER_50_250 vdd vss gf180mcu_fd_sc_mcu7t5v0__fillcap_64
X_6828_ _0735_ _2056_ _1848_ _2144_ _2145_ vdd vss gf180mcu_fd_sc_mcu7t5v0__oai211_1
XANTENNA__5169__A2 _0602_ vdd vss gf180mcu_fd_sc_mcu7t5v0__antenna
XFILLER_51_795 vdd vss gf180mcu_fd_sc_mcu7t5v0__fill_2
XFILLER_91_1180 vdd vss gf180mcu_fd_sc_mcu7t5v0__fillcap_4
XFILLER_11_659 vdd vss gf180mcu_fd_sc_mcu7t5v0__fill_1
X_6759_ _2040_ _2044_ _2077_ _2078_ vdd vss gf180mcu_fd_sc_mcu7t5v0__oai21_1
XANTENNA__4916__A2 _0346_ vdd vss gf180mcu_fd_sc_mcu7t5v0__antenna
XFILLER_91_1191 vdd vss gf180mcu_fd_sc_mcu7t5v0__fill_2
XFILLER_17_1273 vdd vss gf180mcu_fd_sc_mcu7t5v0__fillcap_4
XANTENNA__9118__D _0279_ vdd vss gf180mcu_fd_sc_mcu7t5v0__antenna
XANTENNA__8107__A2 _3245_ vdd vss gf180mcu_fd_sc_mcu7t5v0__antenna
XANTENNA__6118__A1 _1502_ vdd vss gf180mcu_fd_sc_mcu7t5v0__antenna
XANTENNA__6118__B2 _0348_ vdd vss gf180mcu_fd_sc_mcu7t5v0__antenna
XFILLER_100_1118 vdd vss gf180mcu_fd_sc_mcu7t5v0__fillcap_4
XANTENNA__7866__A1 _2779_ vdd vss gf180mcu_fd_sc_mcu7t5v0__antenna
XANTENNA__6669__A2 _0845_ vdd vss gf180mcu_fd_sc_mcu7t5v0__antenna
X_8429_ _2933_ _3627_ _3628_ vdd vss gf180mcu_fd_sc_mcu7t5v0__nand2_1
XFILLER_88_14 vdd vss gf180mcu_fd_sc_mcu7t5v0__fill_1
XFILLER_136_388 vdd vss gf180mcu_fd_sc_mcu7t5v0__fill_2
XFILLER_88_25 vdd vss gf180mcu_fd_sc_mcu7t5v0__fill_2
XFILLER_128_87 vdd vss gf180mcu_fd_sc_mcu7t5v0__fill_2
XFILLER_3_847 vdd vss gf180mcu_fd_sc_mcu7t5v0__fillcap_4
XANTENNA__5341__A2 _0443_ vdd vss gf180mcu_fd_sc_mcu7t5v0__antenna
XFILLER_88_58 vdd vss gf180mcu_fd_sc_mcu7t5v0__fill_2
XANTENNA__7618__A1 _2863_ vdd vss gf180mcu_fd_sc_mcu7t5v0__antenna
XFILLER_105_764 vdd vss gf180mcu_fd_sc_mcu7t5v0__fill_1
XFILLER_132_550 vdd vss gf180mcu_fd_sc_mcu7t5v0__fill_1
XFILLER_105_775 vdd vss gf180mcu_fd_sc_mcu7t5v0__fillcap_4
XFILLER_144_53 vdd vss gf180mcu_fd_sc_mcu7t5v0__fillcap_4
XANTENNA__8291__A1 net53 vdd vss gf180mcu_fd_sc_mcu7t5v0__antenna
XANTENNA__7094__A2 _2094_ vdd vss gf180mcu_fd_sc_mcu7t5v0__antenna
XFILLER_77_136 vdd vss gf180mcu_fd_sc_mcu7t5v0__fill_2
XFILLER_77_147 vdd vss gf180mcu_fd_sc_mcu7t5v0__fillcap_16
XFILLER_120_767 vdd vss gf180mcu_fd_sc_mcu7t5v0__fill_2
XFILLER_144_97 vdd vss gf180mcu_fd_sc_mcu7t5v0__fill_2
XFILLER_24_1244 vdd vss gf180mcu_fd_sc_mcu7t5v0__fillcap_64
XFILLER_58_350 vdd vss gf180mcu_fd_sc_mcu7t5v0__fill_2
XFILLER_115_1372 vdd vss gf180mcu_fd_sc_mcu7t5v0__fill_2
XFILLER_111_1203 vdd vss gf180mcu_fd_sc_mcu7t5v0__fill_1
XFILLER_59_895 vdd vss gf180mcu_fd_sc_mcu7t5v0__fill_2
XANTENNA__4852__A1 as2650.holding_reg\[2\] vdd vss gf180mcu_fd_sc_mcu7t5v0__antenna
XFILLER_98_1312 vdd vss gf180mcu_fd_sc_mcu7t5v0__fill_1
XTAP_3010 vdd vss gf180mcu_fd_sc_mcu7t5v0__filltie
XTAP_3021 vdd vss gf180mcu_fd_sc_mcu7t5v0__filltie
XFILLER_46_534 vdd vss gf180mcu_fd_sc_mcu7t5v0__fill_1
XFILLER_74_843 vdd vss gf180mcu_fd_sc_mcu7t5v0__fill_2