*SPEF "ieee 1481-1999"
*DESIGN "boot_rom"
*DATE "11:11:11 Fri 11 11, 1111"
*VENDOR "OpenRCX"
*PROGRAM "Parallel Extraction"
*VERSION "1.0"
*DESIGN_FLOW "NAME_SCOPE LOCAL" "PIN_CAP NONE"
*DIVIDER /
*DELIMITER :
*BUS_DELIMITER []
*T_UNIT 1 NS
*C_UNIT 1 PF
*R_UNIT 1 OHM
*L_UNIT 1 HENRY

*NAME_MAP
*1 WEb_raw
*2 bus_in[0]
*3 bus_in[1]
*4 bus_in[2]
*5 bus_in[3]
*6 bus_in[4]
*7 bus_in[5]
*8 bus_in[6]
*9 bus_in[7]
*10 bus_out[0]
*11 bus_out[1]
*12 bus_out[2]
*13 bus_out[3]
*14 bus_out[4]
*15 bus_out[5]
*16 bus_out[6]
*17 bus_out[7]
*18 cs_port[0]
*19 cs_port[1]
*20 cs_port[2]
*21 le_hi_act
*22 le_lo_act
*23 ram_end[0]
*24 ram_end[10]
*25 ram_end[11]
*26 ram_end[12]
*27 ram_end[13]
*28 ram_end[14]
*29 ram_end[15]
*30 ram_end[1]
*31 ram_end[2]
*32 ram_end[3]
*33 ram_end[4]
*34 ram_end[5]
*35 ram_end[6]
*36 ram_end[7]
*37 ram_end[8]
*38 ram_end[9]
*39 ram_start[0]
*40 ram_start[10]
*41 ram_start[11]
*42 ram_start[12]
*43 ram_start[13]
*44 ram_start[14]
*45 ram_start[15]
*46 ram_start[1]
*47 ram_start[2]
*48 ram_start[3]
*49 ram_start[4]
*50 ram_start[5]
*51 ram_start[6]
*52 ram_start[7]
*53 ram_start[8]
*54 ram_start[9]
*55 rom_enabled
*56 rst
*59 wb_clk_i
*60 _0000_
*61 _0001_
*62 _0002_
*63 _0003_
*64 _0004_
*65 _0005_
*66 _0006_
*67 _0007_
*68 _0008_
*69 _0009_
*70 _0010_
*71 _0011_
*72 _0012_
*73 _0013_
*74 _0014_
*75 _0015_
*76 _0016_
*77 _0017_
*78 _0018_
*79 _0019_
*80 _0020_
*81 _0021_
*82 _0022_
*83 _0023_
*84 _0024_
*85 _0025_
*86 _0026_
*87 _0027_
*88 _0028_
*89 _0029_
*90 _0030_
*91 _0031_
*92 _0032_
*93 _0033_
*94 _0034_
*95 _0035_
*96 _0036_
*97 _0037_
*98 _0038_
*99 _0039_
*100 _0040_
*101 _0041_
*102 _0042_
*103 _0043_
*104 _0044_
*105 _0045_
*106 _0046_
*107 _0047_
*108 _0048_
*109 _0049_
*110 _0050_
*111 _0051_
*112 _0052_
*113 _0053_
*114 _0054_
*115 _0055_
*116 _0056_
*117 _0057_
*118 _0058_
*119 _0059_
*120 _0060_
*121 _0061_
*122 _0062_
*123 _0063_
*124 _0064_
*125 _0065_
*126 _0066_
*127 _0067_
*128 _0068_
*129 _0069_
*130 _0070_
*131 _0071_
*132 _0072_
*133 _0073_
*134 _0074_
*135 _0075_
*136 _0076_
*137 _0077_
*138 _0078_
*139 _0079_
*140 _0080_
*141 _0081_
*142 _0082_
*143 _0083_
*144 _0084_
*145 _0085_
*146 _0086_
*147 _0087_
*148 _0088_
*149 _0089_
*150 _0090_
*151 _0091_
*152 _0092_
*153 _0093_
*154 _0094_
*155 _0095_
*156 _0096_
*157 _0097_
*158 _0098_
*159 _0099_
*160 _0100_
*161 _0101_
*162 _0102_
*163 _0103_
*164 _0104_
*165 _0105_
*166 _0106_
*167 _0107_
*168 _0108_
*169 _0109_
*170 _0110_
*171 _0111_
*172 _0112_
*173 _0113_
*174 _0114_
*175 _0115_
*176 _0116_
*177 _0117_
*178 _0118_
*179 _0119_
*180 _0120_
*181 _0121_
*182 _0122_
*183 _0123_
*184 _0124_
*185 _0125_
*186 _0126_
*187 _0127_
*188 _0128_
*189 _0129_
*190 _0130_
*191 _0131_
*192 _0132_
*193 _0133_
*194 _0134_
*195 _0135_
*196 _0136_
*197 _0137_
*198 _0138_
*199 _0139_
*200 _0140_
*201 _0141_
*202 _0142_
*203 _0143_
*204 _0144_
*205 _0145_
*206 _0146_
*207 _0147_
*208 _0148_
*209 _0149_
*210 _0150_
*211 _0151_
*212 _0152_
*213 _0153_
*214 _0154_
*215 _0155_
*216 _0156_
*217 _0157_
*218 _0158_
*219 _0159_
*220 _0160_
*221 _0161_
*222 _0162_
*223 _0163_
*224 _0164_
*225 _0165_
*226 _0166_
*227 _0167_
*228 _0168_
*229 _0169_
*230 _0170_
*231 _0171_
*232 _0172_
*233 _0173_
*234 _0174_
*235 _0175_
*236 _0176_
*237 _0177_
*238 _0178_
*239 _0179_
*240 _0180_
*241 _0181_
*242 _0182_
*243 _0183_
*244 _0184_
*245 _0185_
*246 _0186_
*247 _0187_
*248 _0188_
*249 _0189_
*250 _0190_
*251 _0191_
*252 _0192_
*253 _0193_
*254 _0194_
*255 _0195_
*256 _0196_
*257 _0197_
*258 _0198_
*259 _0199_
*260 _0200_
*261 _0201_
*262 _0202_
*263 _0203_
*264 _0204_
*265 _0205_
*266 _0206_
*267 _0207_
*268 _0208_
*269 _0209_
*270 _0210_
*271 _0211_
*272 _0212_
*273 _0213_
*274 _0214_
*275 _0215_
*276 _0216_
*277 _0217_
*278 _0218_
*279 _0219_
*280 _0220_
*281 _0221_
*282 _0222_
*283 _0223_
*284 _0224_
*285 _0225_
*286 _0226_
*287 _0227_
*288 _0228_
*289 _0229_
*290 _0230_
*291 _0231_
*292 _0232_
*293 _0233_
*294 _0234_
*295 _0235_
*296 _0236_
*297 _0237_
*298 _0238_
*299 _0239_
*300 _0240_
*301 _0241_
*302 _0242_
*303 _0243_
*304 _0244_
*305 _0245_
*306 _0246_
*307 _0247_
*308 _0248_
*309 _0249_
*310 _0250_
*311 _0251_
*312 _0252_
*313 _0253_
*314 _0254_
*315 _0255_
*316 _0256_
*317 _0257_
*318 _0258_
*319 _0259_
*320 _0260_
*321 _0261_
*322 _0262_
*323 _0263_
*324 _0264_
*325 _0265_
*326 _0266_
*327 _0267_
*328 _0268_
*329 _0269_
*330 _0270_
*331 _0271_
*332 _0272_
*333 _0273_
*334 _0274_
*335 _0275_
*336 _0276_
*337 _0277_
*338 _0278_
*339 _0279_
*340 _0280_
*341 _0281_
*342 _0282_
*343 _0283_
*344 _0284_
*345 _0285_
*346 _0286_
*347 _0287_
*348 _0288_
*349 _0289_
*350 _0290_
*351 _0291_
*352 _0292_
*353 _0293_
*354 _0294_
*355 _0295_
*356 _0296_
*357 _0297_
*358 _0298_
*359 _0299_
*360 _0300_
*361 _0301_
*362 _0302_
*363 _0303_
*364 _0304_
*365 _0305_
*366 _0306_
*367 _0307_
*368 _0308_
*369 _0309_
*370 _0310_
*371 _0311_
*372 _0312_
*373 _0313_
*374 _0314_
*375 _0315_
*376 _0316_
*377 _0317_
*378 _0318_
*379 _0319_
*380 _0320_
*381 _0321_
*382 _0322_
*383 _0323_
*384 _0324_
*385 _0325_
*386 _0326_
*387 _0327_
*388 _0328_
*389 _0329_
*390 _0330_
*391 _0331_
*392 _0332_
*393 _0333_
*394 _0334_
*395 _0335_
*396 _0336_
*397 _0337_
*398 _0338_
*399 _0339_
*400 _0340_
*401 _0341_
*402 _0342_
*403 _0343_
*404 _0344_
*405 _0345_
*406 _0346_
*407 _0347_
*408 _0348_
*409 _0349_
*410 _0350_
*411 _0351_
*412 _0352_
*413 _0353_
*414 _0354_
*415 _0355_
*416 _0356_
*417 _0357_
*418 _0358_
*419 _0359_
*420 _0360_
*421 _0361_
*422 _0362_
*423 _0363_
*424 _0364_
*425 _0365_
*426 _0366_
*427 _0367_
*428 _0368_
*429 _0369_
*430 _0370_
*431 _0371_
*432 _0372_
*433 _0373_
*434 _0374_
*435 _0375_
*436 _0376_
*437 _0377_
*438 _0378_
*439 _0379_
*440 _0380_
*441 _0381_
*442 _0382_
*443 _0383_
*444 _0384_
*445 _0385_
*446 _0386_
*447 _0387_
*448 _0388_
*449 _0389_
*450 _0390_
*451 _0391_
*452 _0392_
*453 _0393_
*454 _0394_
*455 _0395_
*456 _0396_
*457 _0397_
*458 _0398_
*459 _0399_
*460 _0400_
*461 _0401_
*462 _0402_
*463 _0403_
*464 _0404_
*465 _0405_
*466 _0406_
*467 _0407_
*468 _0408_
*469 _0409_
*470 _0410_
*471 _0411_
*472 _0412_
*473 _0413_
*474 _0414_
*475 _0415_
*476 _0416_
*477 _0417_
*478 _0418_
*479 _0419_
*480 _0420_
*481 _0421_
*482 _0422_
*483 _0423_
*484 _0424_
*485 _0425_
*486 _0426_
*487 _0427_
*488 _0428_
*489 _0429_
*490 _0430_
*491 _0431_
*492 _0432_
*493 _0433_
*494 _0434_
*495 _0435_
*496 _0436_
*497 _0437_
*498 _0438_
*499 _0439_
*500 _0440_
*501 _0441_
*502 _0442_
*503 _0443_
*504 _0444_
*505 _0445_
*506 _0446_
*507 _0447_
*508 _0448_
*509 _0449_
*510 _0450_
*511 _0451_
*512 _0452_
*513 _0453_
*514 _0454_
*515 _0455_
*516 _0456_
*517 _0457_
*518 _0458_
*519 _0459_
*520 _0460_
*521 _0461_
*522 _0462_
*523 _0463_
*524 _0464_
*525 _0465_
*526 _0466_
*527 _0467_
*528 _0468_
*529 _0469_
*530 _0470_
*531 _0471_
*532 _0472_
*533 _0473_
*534 _0474_
*535 _0475_
*536 _0476_
*537 _0477_
*538 _0478_
*539 _0479_
*540 _0480_
*541 _0481_
*542 _0482_
*543 _0483_
*544 _0484_
*545 _0485_
*546 _0486_
*547 _0487_
*548 _0488_
*549 _0489_
*550 _0490_
*551 _0491_
*552 _0492_
*553 _0493_
*554 _0494_
*555 _0495_
*556 _0496_
*557 _0497_
*558 _0498_
*559 _0499_
*560 _0500_
*561 _0501_
*562 _0502_
*563 _0503_
*564 _0504_
*565 _0505_
*566 _0506_
*567 _0507_
*568 _0508_
*569 _0509_
*570 _0510_
*571 _0511_
*572 _0512_
*573 _0513_
*574 _0514_
*575 _0515_
*576 _0516_
*577 _0517_
*578 _0518_
*579 _0519_
*580 _0520_
*581 _0521_
*582 _0522_
*583 _0523_
*584 _0524_
*585 _0525_
*586 _0526_
*587 _0527_
*588 _0528_
*589 _0529_
*590 _0530_
*591 _0531_
*592 _0532_
*593 _0533_
*594 _0534_
*595 _0535_
*596 _0536_
*597 _0537_
*598 _0538_
*599 _0539_
*600 _0540_
*601 _0541_
*602 _0542_
*603 _0543_
*604 _0544_
*605 _0545_
*606 _0546_
*607 _0547_
*608 _0548_
*609 _0549_
*610 _0550_
*611 _0551_
*612 _0552_
*613 _0553_
*614 _0554_
*615 _0555_
*616 _0556_
*617 _0557_
*618 _0558_
*619 _0559_
*620 _0560_
*621 _0561_
*622 _0562_
*623 clknet_0_wb_clk_i
*624 clknet_2_0__leaf_wb_clk_i
*625 clknet_2_1__leaf_wb_clk_i
*626 clknet_2_2__leaf_wb_clk_i
*627 clknet_2_3__leaf_wb_clk_i
*628 full_addr\[0\]
*629 full_addr\[10\]
*630 full_addr\[11\]
*631 full_addr\[12\]
*632 full_addr\[13\]
*633 full_addr\[14\]
*634 full_addr\[15\]
*635 full_addr\[1\]
*636 full_addr\[2\]
*637 full_addr\[3\]
*638 full_addr\[4\]
*639 full_addr\[5\]
*640 full_addr\[6\]
*641 full_addr\[7\]
*642 full_addr\[8\]
*643 full_addr\[9\]
*644 net1
*645 net10
*646 net11
*647 net12
*648 net13
*649 net14
*650 net15
*651 net16
*652 net17
*653 net18
*654 net19
*655 net2
*656 net20
*657 net21
*658 net22
*659 net23
*660 net24
*661 net25
*662 net26
*663 net27
*664 net28
*665 net29
*666 net3
*667 net30
*668 net31
*669 net32
*670 net33
*671 net34
*672 net35
*673 net36
*674 net37
*675 net38
*676 net39
*677 net4
*678 net40
*679 net41
*680 net42
*681 net43
*682 net44
*683 net45
*684 net46
*685 net47
*686 net48
*687 net49
*688 net5
*689 net50
*690 net51
*691 net52
*692 net53
*693 net54
*694 net55
*695 net56
*696 net6
*697 net7
*698 net8
*699 net9
*700 writable\[0\]
*701 writable\[10\]
*702 writable\[11\]
*703 writable\[12\]
*704 writable\[13\]
*705 writable\[14\]
*706 writable\[15\]
*707 writable\[1\]
*708 writable\[2\]
*709 writable\[3\]
*710 writable\[4\]
*711 writable\[5\]
*712 writable\[6\]
*713 writable\[7\]
*714 writable\[8\]
*715 writable\[9\]
*716 ANTENNA__0584__A1
*717 ANTENNA__0584__A2
*718 ANTENNA__0585__I
*719 ANTENNA__0612__A3
*720 ANTENNA__0619__I
*721 ANTENNA__0636__A3
*722 ANTENNA__0636__B1
*723 ANTENNA__0637__A1
*724 ANTENNA__0637__B1
*725 ANTENNA__0637__B2
*726 ANTENNA__0644__A1
*727 ANTENNA__0644__A2
*728 ANTENNA__0647__I
*729 ANTENNA__0653__A1
*730 ANTENNA__0653__B1
*731 ANTENNA__0653__B2
*732 ANTENNA__0657__I
*733 ANTENNA__0659__A1
*734 ANTENNA__0659__A2
*735 ANTENNA__0659__B
*736 ANTENNA__0665__A2
*737 ANTENNA__0668__I
*738 ANTENNA__0669__A1
*739 ANTENNA__0674__I
*740 ANTENNA__0675__A1
*741 ANTENNA__0675__A2
*742 ANTENNA__0677__I
*743 ANTENNA__0679__A1
*744 ANTENNA__0680__I
*745 ANTENNA__0681__A1
*746 ANTENNA__0683__A2
*747 ANTENNA__0686__I
*748 ANTENNA__0692__B2
*749 ANTENNA__0693__A1
*750 ANTENNA__0693__A2
*751 ANTENNA__0699__B
*752 ANTENNA__0700__A3
*753 ANTENNA__0701__A1
*754 ANTENNA__0701__A2
*755 ANTENNA__0704__I
*756 ANTENNA__0706__A2
*757 ANTENNA__0709__I
*758 ANTENNA__0716__I
*759 ANTENNA__0718__A2
*760 ANTENNA__0718__B1
*761 ANTENNA__0719__A1
*762 ANTENNA__0723__I
*763 ANTENNA__0726__A3
*764 ANTENNA__0727__I
*765 ANTENNA__0729__A2
*766 ANTENNA__0733__A2
*767 ANTENNA__0733__B1
*768 ANTENNA__0733__B2
*769 ANTENNA__0735__A1
*770 ANTENNA__0737__A4
*771 ANTENNA__0743__A3
*772 ANTENNA__0743__B2
*773 ANTENNA__0744__A1
*774 ANTENNA__0744__C
*775 ANTENNA__0745__A2
*776 ANTENNA__0747__A1
*777 ANTENNA__0747__A2
*778 ANTENNA__0748__A3
*779 ANTENNA__0752__I
*780 ANTENNA__0755__I
*781 ANTENNA__0756__A2
*782 ANTENNA__0756__B
*783 ANTENNA__0759__I
*784 ANTENNA__0761__A3
*785 ANTENNA__0763__I
*786 ANTENNA__0765__A1
*787 ANTENNA__0765__A2
*788 ANTENNA__0768__I
*789 ANTENNA__0769__A1
*790 ANTENNA__0769__A2
*791 ANTENNA__0771__A1
*792 ANTENNA__0771__A2
*793 ANTENNA__0771__B
*794 ANTENNA__0774__I
*795 ANTENNA__0777__A1
*796 ANTENNA__0777__A2
*797 ANTENNA__0777__B2
*798 ANTENNA__0778__I
*799 ANTENNA__0779__A1
*800 ANTENNA__0779__B2
*801 ANTENNA__0779__C1
*802 ANTENNA__0779__C2
*803 ANTENNA__0780__A3
*804 ANTENNA__0783__A1
*805 ANTENNA__0783__A2
*806 ANTENNA__0783__B1
*807 ANTENNA__0783__B2
*808 ANTENNA__0783__C2
*809 ANTENNA__0786__A1
*810 ANTENNA__0786__A2
*811 ANTENNA__0786__B
*812 ANTENNA__0788__B1
*813 ANTENNA__0788__B2
*814 ANTENNA__0788__C1
*815 ANTENNA__0788__C2
*816 ANTENNA__0793__A1
*817 ANTENNA__0793__A2
*818 ANTENNA__0793__B1
*819 ANTENNA__0793__C1
*820 ANTENNA__0793__C2
*821 ANTENNA__0795__A1
*822 ANTENNA__0798__I
*823 ANTENNA__0799__A2
*824 ANTENNA__0800__I
*825 ANTENNA__0801__A1
*826 ANTENNA__0802__B
*827 ANTENNA__0805__A2
*828 ANTENNA__0809__A1
*829 ANTENNA__0809__B
*830 ANTENNA__0811__I
*831 ANTENNA__0812__A2
*832 ANTENNA__0812__A3
*833 ANTENNA__0815__A2
*834 ANTENNA__0816__A1
*835 ANTENNA__0818__A1
*836 ANTENNA__0818__A2
*837 ANTENNA__0819__A1
*838 ANTENNA__0819__A2
*839 ANTENNA__0820__A1
*840 ANTENNA__0820__A2
*841 ANTENNA__0821__B
*842 ANTENNA__0821__C
*843 ANTENNA__0826__A2
*844 ANTENNA__0827__A2
*845 ANTENNA__0827__B1
*846 ANTENNA__0832__A1
*847 ANTENNA__0833__C1
*848 ANTENNA__0833__C2
*849 ANTENNA__0834__I
*850 ANTENNA__0835__A1
*851 ANTENNA__0836__A1
*852 ANTENNA__0837__I
*853 ANTENNA__0842__A2
*854 ANTENNA__0843__A1
*855 ANTENNA__0843__A2
*856 ANTENNA__0846__A1
*857 ANTENNA__0847__A2
*858 ANTENNA__0848__B1
*859 ANTENNA__0848__B2
*860 ANTENNA__0850__A1
*861 ANTENNA__0850__A2
*862 ANTENNA__0851__A2
*863 ANTENNA__0852__A2
*864 ANTENNA__0852__B2
*865 ANTENNA__0859__A1
*866 ANTENNA__0859__A2
*867 ANTENNA__0860__A1
*868 ANTENNA__0860__A2
*869 ANTENNA__0861__A1
*870 ANTENNA__0861__A2
*871 ANTENNA__0861__B
*872 ANTENNA__0862__A1
*873 ANTENNA__0862__B1
*874 ANTENNA__0862__B2
*875 ANTENNA__0864__A1
*876 ANTENNA__0866__B2
*877 ANTENNA__0868__A1
*878 ANTENNA__0870__A1
*879 ANTENNA__0870__A2
*880 ANTENNA__0870__B1
*881 ANTENNA__0872__I
*882 ANTENNA__0875__A1
*883 ANTENNA__0876__I
*884 ANTENNA__0877__A1
*885 ANTENNA__0877__A2
*886 ANTENNA__0878__I
*887 ANTENNA__0880__A1
*888 ANTENNA__0881__I
*889 ANTENNA__0883__B1
*890 ANTENNA__0883__B2
*891 ANTENNA__0893__A2
*892 ANTENNA__0894__A1
*893 ANTENNA__0894__A2
*894 ANTENNA__0896__A1
*895 ANTENNA__0897__A2
*896 ANTENNA__0898__B1
*897 ANTENNA__0899__A2
*898 ANTENNA__0899__B
*899 ANTENNA__0903__A1
*900 ANTENNA__0903__A2
*901 ANTENNA__0905__A1
*902 ANTENNA__0905__C1
*903 ANTENNA__0906__A2
*904 ANTENNA__0907__A1
*905 ANTENNA__0907__A2
*906 ANTENNA__0908__A1
*907 ANTENNA__0908__B1
*908 ANTENNA__0910__A2
*909 ANTENNA__0910__A3
*910 ANTENNA__0910__A4
*911 ANTENNA__0914__A1
*912 ANTENNA__0919__A1
*913 ANTENNA__0919__A2
*914 ANTENNA__0920__A1
*915 ANTENNA__0921__A2
*916 ANTENNA__0922__A1
*917 ANTENNA__0923__A1
*918 ANTENNA__0924__A1
*919 ANTENNA__0924__A2
*920 ANTENNA__0928__A1
*921 ANTENNA__0928__A2
*922 ANTENNA__0929__A1
*923 ANTENNA__0930__B1
*924 ANTENNA__0930__B2
*925 ANTENNA__0931__A1
*926 ANTENNA__0932__A2
*927 ANTENNA__0934__A2
*928 ANTENNA__0937__I
*929 ANTENNA__0938__I
*930 ANTENNA__0939__A2
*931 ANTENNA__0939__B
*932 ANTENNA__0940__A1
*933 ANTENNA__0940__B
*934 ANTENNA__0941__A1
*935 ANTENNA__0942__A1
*936 ANTENNA__0950__A3
*937 ANTENNA__0953__I
*938 ANTENNA__0954__A2
*939 ANTENNA__0955__A1
*940 ANTENNA__0955__A2
*941 ANTENNA__0957__A1
*942 ANTENNA__0957__B
*943 ANTENNA__0959__B2
*944 ANTENNA__0960__A1
*945 ANTENNA__0961__A1
*946 ANTENNA__0961__A3
*947 ANTENNA__0967__A1
*948 ANTENNA__0974__A1
*949 ANTENNA__0974__A2
*950 ANTENNA__0976__A2
*951 ANTENNA__0977__A1
*952 ANTENNA__0979__A2
*953 ANTENNA__0980__A1
*954 ANTENNA__0980__A2
*955 ANTENNA__0980__B1
*956 ANTENNA__0981__A1
*957 ANTENNA__0981__C2
*958 ANTENNA__0983__A4
*959 ANTENNA__0986__A1
*960 ANTENNA__0987__A1
*961 ANTENNA__0988__A3
*962 ANTENNA__0989__A1
*963 ANTENNA__0989__B
*964 ANTENNA__0990__A1
*965 ANTENNA__0991__B1
*966 ANTENNA__0991__B2
*967 ANTENNA__0992__A1
*968 ANTENNA__0994__A1
*969 ANTENNA__0995__A3
*970 ANTENNA__0998__A2
*971 ANTENNA__0998__B
*972 ANTENNA__0998__C
*973 ANTENNA__1001__A1
*974 ANTENNA__1002__A3
*975 ANTENNA__1003__A1
*976 ANTENNA__1003__A2
*977 ANTENNA__1003__B2
*978 ANTENNA__1005__A1
*979 ANTENNA__1009__A1
*980 ANTENNA__1012__A1
*981 ANTENNA__1012__A3
*982 ANTENNA__1012__A4
*983 ANTENNA__1013__C2
*984 ANTENNA__1014__A3
*985 ANTENNA__1017__A1
*986 ANTENNA__1021__A1
*987 ANTENNA__1023__A1
*988 ANTENNA__1024__A1
*989 ANTENNA__1031__A1
*990 ANTENNA__1034__I
*991 ANTENNA__1037__I
*992 ANTENNA__1038__I
*993 ANTENNA__1039__A1
*994 ANTENNA__1040__A1
*995 ANTENNA__1042__A1
*996 ANTENNA__1043__A1
*997 ANTENNA__1045__A1
*998 ANTENNA__1046__A1
*999 ANTENNA__1048__I
*1000 ANTENNA__1049__A1
*1001 ANTENNA__1050__A1
*1002 ANTENNA__1052__I
*1003 ANTENNA__1053__I
*1004 ANTENNA__1054__A1
*1005 ANTENNA__1055__A1
*1006 ANTENNA__1057__A1
*1007 ANTENNA__1058__A1
*1008 ANTENNA__1060__A1
*1009 ANTENNA__1061__A1
*1010 ANTENNA__1063__A2
*1011 ANTENNA__1064__A1
*1012 ANTENNA__1065__A2
*1013 ANTENNA__1066__I
*1014 ANTENNA__1067__I
*1015 ANTENNA__1069__I
*1016 ANTENNA__1071__A1
*1017 ANTENNA__1073__A1
*1018 ANTENNA__1075__A1
*1019 ANTENNA__1077__A1
*1020 ANTENNA__1078__I
*1021 ANTENNA__1079__I
*1022 ANTENNA__1080__I
*1023 ANTENNA__1082__A1
*1024 ANTENNA__1084__A1
*1025 ANTENNA__1086__A1
*1026 ANTENNA__1088__A1
*1027 ANTENNA__1089__I
*1028 ANTENNA__1090__I
*1029 ANTENNA__1091__I
*1030 ANTENNA__1093__A1
*1031 ANTENNA__1095__A1
*1032 ANTENNA__1097__A1
*1033 ANTENNA__1098__I
*1034 ANTENNA__1100__A1
*1035 ANTENNA__1101__I
*1036 ANTENNA__1102__I
*1037 ANTENNA__1104__A1
*1038 ANTENNA__1106__A1
*1039 ANTENNA__1108__A1
*1040 ANTENNA__1110__A1
*1041 ANTENNA__1114__I
*1042 ANTENNA__1116__A1
*1043 ANTENNA__1118__A1
*1044 ANTENNA__1120__A1
*1045 ANTENNA__1122__A1
*1046 ANTENNA__1125__I
*1047 ANTENNA__1127__A1
*1048 ANTENNA__1129__A1
*1049 ANTENNA__1131__A1
*1050 ANTENNA__1133__A1
*1051 ANTENNA__1134__CLK
*1052 ANTENNA__1135__CLK
*1053 ANTENNA__1136__CLK
*1054 ANTENNA__1137__CLK
*1055 ANTENNA__1146__CLK
*1056 ANTENNA__1150__CLK
*1057 ANTENNA__1152__CLK
*1058 ANTENNA__1153__CLK
*1059 ANTENNA__1154__CLK
*1060 ANTENNA__1155__CLK
*1061 ANTENNA__1156__CLK
*1062 ANTENNA__1157__CLK
*1063 ANTENNA__1158__CLK
*1064 ANTENNA__1159__CLK
*1065 ANTENNA__1160__CLK
*1066 ANTENNA__1162__CLK
*1067 ANTENNA__1163__CLK
*1068 ANTENNA__1165__CLK
*1069 ANTENNA_clkbuf_0_wb_clk_i_I
*1070 ANTENNA_clkbuf_2_0__f_wb_clk_i_I
*1071 ANTENNA_clkbuf_2_1__f_wb_clk_i_I
*1072 ANTENNA_clkbuf_2_2__f_wb_clk_i_I
*1073 ANTENNA_clkbuf_2_3__f_wb_clk_i_I
*1074 ANTENNA_input10_I
*1075 ANTENNA_input11_I
*1076 ANTENNA_input12_I
*1077 ANTENNA_input13_I
*1078 ANTENNA_input14_I
*1079 ANTENNA_input15_I
*1080 ANTENNA_input16_I
*1081 ANTENNA_input17_I
*1082 ANTENNA_input18_I
*1083 ANTENNA_input19_I
*1084 ANTENNA_input1_I
*1085 ANTENNA_input20_I
*1086 ANTENNA_input21_I
*1087 ANTENNA_input22_I
*1088 ANTENNA_input23_I
*1089 ANTENNA_input24_I
*1090 ANTENNA_input25_I
*1091 ANTENNA_input26_I
*1092 ANTENNA_input27_I
*1093 ANTENNA_input28_I
*1094 ANTENNA_input29_I
*1095 ANTENNA_input2_I
*1096 ANTENNA_input30_I
*1097 ANTENNA_input31_I
*1098 ANTENNA_input32_I
*1099 ANTENNA_input33_I
*1100 ANTENNA_input34_I
*1101 ANTENNA_input35_I
*1102 ANTENNA_input36_I
*1103 ANTENNA_input37_I
*1104 ANTENNA_input38_I
*1105 ANTENNA_input39_I
*1106 ANTENNA_input3_I
*1107 ANTENNA_input40_I
*1108 ANTENNA_input41_I
*1109 ANTENNA_input42_I
*1110 ANTENNA_input43_I
*1111 ANTENNA_input44_I
*1112 ANTENNA_input45_I
*1113 ANTENNA_input46_I
*1114 ANTENNA_input47_I
*1115 ANTENNA_input48_I
*1116 ANTENNA_input4_I
*1117 ANTENNA_input5_I
*1118 ANTENNA_input6_I
*1119 ANTENNA_input7_I
*1120 ANTENNA_input8_I
*1121 ANTENNA_input9_I
*1122 ANTENNA_output49_I
*1123 ANTENNA_output50_I
*1124 ANTENNA_output51_I
*1125 ANTENNA_output52_I
*1126 ANTENNA_output53_I
*1127 ANTENNA_output54_I
*1128 ANTENNA_output55_I
*1129 ANTENNA_output56_I
*1130 FILLER_0_0_10
*1131 FILLER_0_0_104
*1132 FILLER_0_0_138
*1133 FILLER_0_0_14
*1134 FILLER_0_0_172
*1135 FILLER_0_0_206
*1136 FILLER_0_0_240
*1137 FILLER_0_0_274
*1138 FILLER_0_0_30
*1139 FILLER_0_0_308
*1140 FILLER_0_0_342
*1141 FILLER_0_0_36
*1142 FILLER_0_0_376
*1143 FILLER_0_0_410
*1144 FILLER_0_0_444
*1145 FILLER_0_0_478
*1146 FILLER_0_0_494
*1147 FILLER_0_0_502
*1148 FILLER_0_0_506
*1149 FILLER_0_0_508
*1150 FILLER_0_0_70
*1151 FILLER_0_10_101
*1152 FILLER_0_10_107
*1153 FILLER_0_10_12
*1154 FILLER_0_10_171
*1155 FILLER_0_10_177
*1156 FILLER_0_10_241
*1157 FILLER_0_10_247
*1158 FILLER_0_10_28
*1159 FILLER_0_10_311
*1160 FILLER_0_10_317
*1161 FILLER_0_10_32
*1162 FILLER_0_10_34
*1163 FILLER_0_10_37
*1164 FILLER_0_10_381
*1165 FILLER_0_10_387
*1166 FILLER_0_10_451
*1167 FILLER_0_10_457
*1168 FILLER_0_10_489
*1169 FILLER_0_10_505
*1170 FILLER_0_10_8
*1171 FILLER_0_11_136
*1172 FILLER_0_11_142
*1173 FILLER_0_11_2
*1174 FILLER_0_11_206
*1175 FILLER_0_11_212
*1176 FILLER_0_11_276
*1177 FILLER_0_11_282
*1178 FILLER_0_11_346
*1179 FILLER_0_11_352
*1180 FILLER_0_11_416
*1181 FILLER_0_11_422
*1182 FILLER_0_11_486
*1183 FILLER_0_11_492
*1184 FILLER_0_11_508
*1185 FILLER_0_11_66
*1186 FILLER_0_11_72
*1187 FILLER_0_12_101
*1188 FILLER_0_12_107
*1189 FILLER_0_12_12
*1190 FILLER_0_12_171
*1191 FILLER_0_12_177
*1192 FILLER_0_12_241
*1193 FILLER_0_12_247
*1194 FILLER_0_12_28
*1195 FILLER_0_12_311
*1196 FILLER_0_12_317
*1197 FILLER_0_12_32
*1198 FILLER_0_12_34
*1199 FILLER_0_12_37
*1200 FILLER_0_12_381
*1201 FILLER_0_12_387
*1202 FILLER_0_12_451
*1203 FILLER_0_12_457
*1204 FILLER_0_12_489
*1205 FILLER_0_12_505
*1206 FILLER_0_12_8
*1207 FILLER_0_13_136
*1208 FILLER_0_13_142
*1209 FILLER_0_13_2
*1210 FILLER_0_13_206
*1211 FILLER_0_13_212
*1212 FILLER_0_13_276
*1213 FILLER_0_13_282
*1214 FILLER_0_13_346
*1215 FILLER_0_13_352
*1216 FILLER_0_13_416
*1217 FILLER_0_13_422
*1218 FILLER_0_13_486
*1219 FILLER_0_13_492
*1220 FILLER_0_13_508
*1221 FILLER_0_13_66
*1222 FILLER_0_13_72
*1223 FILLER_0_14_101
*1224 FILLER_0_14_107
*1225 FILLER_0_14_171
*1226 FILLER_0_14_177
*1227 FILLER_0_14_2
*1228 FILLER_0_14_241
*1229 FILLER_0_14_247
*1230 FILLER_0_14_311
*1231 FILLER_0_14_317
*1232 FILLER_0_14_34
*1233 FILLER_0_14_37
*1234 FILLER_0_14_381
*1235 FILLER_0_14_387
*1236 FILLER_0_14_451
*1237 FILLER_0_14_457
*1238 FILLER_0_14_489
*1239 FILLER_0_14_505
*1240 FILLER_0_15_12
*1241 FILLER_0_15_136
*1242 FILLER_0_15_142
*1243 FILLER_0_15_206
*1244 FILLER_0_15_212
*1245 FILLER_0_15_276
*1246 FILLER_0_15_282
*1247 FILLER_0_15_346
*1248 FILLER_0_15_352
*1249 FILLER_0_15_416
*1250 FILLER_0_15_422
*1251 FILLER_0_15_44
*1252 FILLER_0_15_486
*1253 FILLER_0_15_492
*1254 FILLER_0_15_508
*1255 FILLER_0_15_60
*1256 FILLER_0_15_68
*1257 FILLER_0_15_72
*1258 FILLER_0_15_8
*1259 FILLER_0_16_101
*1260 FILLER_0_16_107
*1261 FILLER_0_16_171
*1262 FILLER_0_16_177
*1263 FILLER_0_16_2
*1264 FILLER_0_16_241
*1265 FILLER_0_16_247
*1266 FILLER_0_16_311
*1267 FILLER_0_16_317
*1268 FILLER_0_16_34
*1269 FILLER_0_16_37
*1270 FILLER_0_16_381
*1271 FILLER_0_16_387
*1272 FILLER_0_16_451
*1273 FILLER_0_16_457
*1274 FILLER_0_16_489
*1275 FILLER_0_16_505
*1276 FILLER_0_17_12
*1277 FILLER_0_17_136
*1278 FILLER_0_17_142
*1279 FILLER_0_17_206
*1280 FILLER_0_17_212
*1281 FILLER_0_17_276
*1282 FILLER_0_17_282
*1283 FILLER_0_17_346
*1284 FILLER_0_17_352
*1285 FILLER_0_17_416
*1286 FILLER_0_17_422
*1287 FILLER_0_17_44
*1288 FILLER_0_17_486
*1289 FILLER_0_17_492
*1290 FILLER_0_17_508
*1291 FILLER_0_17_60
*1292 FILLER_0_17_68
*1293 FILLER_0_17_72
*1294 FILLER_0_17_8
*1295 FILLER_0_18_101
*1296 FILLER_0_18_107
*1297 FILLER_0_18_171
*1298 FILLER_0_18_177
*1299 FILLER_0_18_2
*1300 FILLER_0_18_241
*1301 FILLER_0_18_247
*1302 FILLER_0_18_311
*1303 FILLER_0_18_317
*1304 FILLER_0_18_34
*1305 FILLER_0_18_37
*1306 FILLER_0_18_381
*1307 FILLER_0_18_387
*1308 FILLER_0_18_451
*1309 FILLER_0_18_457
*1310 FILLER_0_18_489
*1311 FILLER_0_18_505
*1312 FILLER_0_19_12
*1313 FILLER_0_19_136
*1314 FILLER_0_19_142
*1315 FILLER_0_19_206
*1316 FILLER_0_19_212
*1317 FILLER_0_19_276
*1318 FILLER_0_19_282
*1319 FILLER_0_19_346
*1320 FILLER_0_19_352
*1321 FILLER_0_19_416
*1322 FILLER_0_19_422
*1323 FILLER_0_19_44
*1324 FILLER_0_19_486
*1325 FILLER_0_19_492
*1326 FILLER_0_19_508
*1327 FILLER_0_19_60
*1328 FILLER_0_19_68
*1329 FILLER_0_19_72
*1330 FILLER_0_19_8
*1331 FILLER_0_1_12
*1332 FILLER_0_1_136
*1333 FILLER_0_1_142
*1334 FILLER_0_1_206
*1335 FILLER_0_1_212
*1336 FILLER_0_1_276
*1337 FILLER_0_1_282
*1338 FILLER_0_1_346
*1339 FILLER_0_1_352
*1340 FILLER_0_1_416
*1341 FILLER_0_1_422
*1342 FILLER_0_1_44
*1343 FILLER_0_1_486
*1344 FILLER_0_1_492
*1345 FILLER_0_1_508
*1346 FILLER_0_1_60
*1347 FILLER_0_1_68
*1348 FILLER_0_1_72
*1349 FILLER_0_1_8
*1350 FILLER_0_20_101
*1351 FILLER_0_20_107
*1352 FILLER_0_20_171
*1353 FILLER_0_20_177
*1354 FILLER_0_20_2
*1355 FILLER_0_20_241
*1356 FILLER_0_20_247
*1357 FILLER_0_20_311
*1358 FILLER_0_20_317
*1359 FILLER_0_20_34
*1360 FILLER_0_20_37
*1361 FILLER_0_20_381
*1362 FILLER_0_20_387
*1363 FILLER_0_20_451
*1364 FILLER_0_20_457
*1365 FILLER_0_20_489
*1366 FILLER_0_20_505
*1367 FILLER_0_21_136
*1368 FILLER_0_21_142
*1369 FILLER_0_21_2
*1370 FILLER_0_21_206
*1371 FILLER_0_21_212
*1372 FILLER_0_21_276
*1373 FILLER_0_21_282
*1374 FILLER_0_21_346
*1375 FILLER_0_21_352
*1376 FILLER_0_21_416
*1377 FILLER_0_21_422
*1378 FILLER_0_21_486
*1379 FILLER_0_21_492
*1380 FILLER_0_21_508
*1381 FILLER_0_21_66
*1382 FILLER_0_21_72
*1383 FILLER_0_22_101
*1384 FILLER_0_22_107
*1385 FILLER_0_22_12
*1386 FILLER_0_22_171
*1387 FILLER_0_22_177
*1388 FILLER_0_22_241
*1389 FILLER_0_22_247
*1390 FILLER_0_22_28
*1391 FILLER_0_22_311
*1392 FILLER_0_22_317
*1393 FILLER_0_22_32
*1394 FILLER_0_22_34
*1395 FILLER_0_22_37
*1396 FILLER_0_22_381
*1397 FILLER_0_22_387
*1398 FILLER_0_22_451
*1399 FILLER_0_22_457
*1400 FILLER_0_22_489
*1401 FILLER_0_22_505
*1402 FILLER_0_22_8
*1403 FILLER_0_23_136
*1404 FILLER_0_23_142
*1405 FILLER_0_23_2
*1406 FILLER_0_23_206
*1407 FILLER_0_23_212
*1408 FILLER_0_23_276
*1409 FILLER_0_23_282
*1410 FILLER_0_23_346
*1411 FILLER_0_23_352
*1412 FILLER_0_23_416
*1413 FILLER_0_23_422
*1414 FILLER_0_23_486
*1415 FILLER_0_23_492
*1416 FILLER_0_23_508
*1417 FILLER_0_23_66
*1418 FILLER_0_23_72
*1419 FILLER_0_24_101
*1420 FILLER_0_24_107
*1421 FILLER_0_24_12
*1422 FILLER_0_24_171
*1423 FILLER_0_24_177
*1424 FILLER_0_24_241
*1425 FILLER_0_24_247
*1426 FILLER_0_24_28
*1427 FILLER_0_24_311
*1428 FILLER_0_24_317
*1429 FILLER_0_24_32
*1430 FILLER_0_24_34
*1431 FILLER_0_24_37
*1432 FILLER_0_24_381
*1433 FILLER_0_24_387
*1434 FILLER_0_24_451
*1435 FILLER_0_24_457
*1436 FILLER_0_24_489
*1437 FILLER_0_24_505
*1438 FILLER_0_24_8
*1439 FILLER_0_25_104
*1440 FILLER_0_25_120
*1441 FILLER_0_25_124
*1442 FILLER_0_25_133
*1443 FILLER_0_25_137
*1444 FILLER_0_25_139
*1445 FILLER_0_25_142
*1446 FILLER_0_25_146
*1447 FILLER_0_25_154
*1448 FILLER_0_25_161
*1449 FILLER_0_25_169
*1450 FILLER_0_25_173
*1451 FILLER_0_25_183
*1452 FILLER_0_25_187
*1453 FILLER_0_25_191
*1454 FILLER_0_25_194
*1455 FILLER_0_25_2
*1456 FILLER_0_25_212
*1457 FILLER_0_25_216
*1458 FILLER_0_25_282
*1459 FILLER_0_25_346
*1460 FILLER_0_25_352
*1461 FILLER_0_25_416
*1462 FILLER_0_25_422
*1463 FILLER_0_25_486
*1464 FILLER_0_25_492
*1465 FILLER_0_25_508
*1466 FILLER_0_25_66
*1467 FILLER_0_25_72
*1468 FILLER_0_26_12
*1469 FILLER_0_26_129
*1470 FILLER_0_26_192
*1471 FILLER_0_26_194
*1472 FILLER_0_26_211
*1473 FILLER_0_26_215
*1474 FILLER_0_26_219
*1475 FILLER_0_26_235
*1476 FILLER_0_26_243
*1477 FILLER_0_26_247
*1478 FILLER_0_26_28
*1479 FILLER_0_26_311
*1480 FILLER_0_26_317
*1481 FILLER_0_26_32
*1482 FILLER_0_26_34
*1483 FILLER_0_26_37
*1484 FILLER_0_26_381
*1485 FILLER_0_26_387
*1486 FILLER_0_26_451
*1487 FILLER_0_26_457
*1488 FILLER_0_26_489
*1489 FILLER_0_26_505
*1490 FILLER_0_26_69
*1491 FILLER_0_26_8
*1492 FILLER_0_26_85
*1493 FILLER_0_26_89
*1494 FILLER_0_26_93
*1495 FILLER_0_27_142
*1496 FILLER_0_27_2
*1497 FILLER_0_27_220
*1498 FILLER_0_27_224
*1499 FILLER_0_27_256
*1500 FILLER_0_27_272
*1501 FILLER_0_27_282
*1502 FILLER_0_27_346
*1503 FILLER_0_27_352
*1504 FILLER_0_27_416
*1505 FILLER_0_27_422
*1506 FILLER_0_27_486
*1507 FILLER_0_27_492
*1508 FILLER_0_27_508
*1509 FILLER_0_27_66
*1510 FILLER_0_27_72
*1511 FILLER_0_27_80
*1512 FILLER_0_27_84
*1513 FILLER_0_27_86
*1514 FILLER_0_27_89
*1515 FILLER_0_28_107
*1516 FILLER_0_28_109
*1517 FILLER_0_28_118
*1518 FILLER_0_28_12
*1519 FILLER_0_28_159
*1520 FILLER_0_28_177
*1521 FILLER_0_28_228
*1522 FILLER_0_28_232
*1523 FILLER_0_28_234
*1524 FILLER_0_28_243
*1525 FILLER_0_28_247
*1526 FILLER_0_28_251
*1527 FILLER_0_28_28
*1528 FILLER_0_28_317
*1529 FILLER_0_28_32
*1530 FILLER_0_28_34
*1531 FILLER_0_28_37
*1532 FILLER_0_28_381
*1533 FILLER_0_28_387
*1534 FILLER_0_28_45
*1535 FILLER_0_28_451
*1536 FILLER_0_28_457
*1537 FILLER_0_28_489
*1538 FILLER_0_28_505
*1539 FILLER_0_28_59
*1540 FILLER_0_28_8
*1541 FILLER_0_29_104
*1542 FILLER_0_29_108
*1543 FILLER_0_29_112
*1544 FILLER_0_29_116
*1545 FILLER_0_29_120
*1546 FILLER_0_29_133
*1547 FILLER_0_29_137
*1548 FILLER_0_29_151
*1549 FILLER_0_29_155
*1550 FILLER_0_29_157
*1551 FILLER_0_29_160
*1552 FILLER_0_29_164
*1553 FILLER_0_29_168
*1554 FILLER_0_29_172
*1555 FILLER_0_29_184
*1556 FILLER_0_29_193
*1557 FILLER_0_29_197
*1558 FILLER_0_29_2
*1559 FILLER_0_29_205
*1560 FILLER_0_29_209
*1561 FILLER_0_29_212
*1562 FILLER_0_29_222
*1563 FILLER_0_29_226
*1564 FILLER_0_29_258
*1565 FILLER_0_29_274
*1566 FILLER_0_29_278
*1567 FILLER_0_29_282
*1568 FILLER_0_29_34
*1569 FILLER_0_29_346
*1570 FILLER_0_29_352
*1571 FILLER_0_29_416
*1572 FILLER_0_29_422
*1573 FILLER_0_29_44
*1574 FILLER_0_29_48
*1575 FILLER_0_29_486
*1576 FILLER_0_29_492
*1577 FILLER_0_29_508
*1578 FILLER_0_29_68
*1579 FILLER_0_29_80
*1580 FILLER_0_29_84
*1581 FILLER_0_2_101
*1582 FILLER_0_2_107
*1583 FILLER_0_2_171
*1584 FILLER_0_2_177
*1585 FILLER_0_2_2
*1586 FILLER_0_2_22
*1587 FILLER_0_2_241
*1588 FILLER_0_2_247
*1589 FILLER_0_2_30
*1590 FILLER_0_2_311
*1591 FILLER_0_2_317
*1592 FILLER_0_2_34
*1593 FILLER_0_2_37
*1594 FILLER_0_2_381
*1595 FILLER_0_2_387
*1596 FILLER_0_2_451
*1597 FILLER_0_2_457
*1598 FILLER_0_2_489
*1599 FILLER_0_2_505
*1600 FILLER_0_2_6
*1601 FILLER_0_30_103
*1602 FILLER_0_30_107
*1603 FILLER_0_30_111
*1604 FILLER_0_30_115
*1605 FILLER_0_30_132
*1606 FILLER_0_30_138
*1607 FILLER_0_30_142
*1608 FILLER_0_30_144
*1609 FILLER_0_30_147
*1610 FILLER_0_30_159
*1611 FILLER_0_30_163
*1612 FILLER_0_30_169
*1613 FILLER_0_30_173
*1614 FILLER_0_30_177
*1615 FILLER_0_30_181
*1616 FILLER_0_30_183
*1617 FILLER_0_30_186
*1618 FILLER_0_30_194
*1619 FILLER_0_30_198
*1620 FILLER_0_30_2
*1621 FILLER_0_30_223
*1622 FILLER_0_30_227
*1623 FILLER_0_30_231
*1624 FILLER_0_30_239
*1625 FILLER_0_30_243
*1626 FILLER_0_30_247
*1627 FILLER_0_30_27
*1628 FILLER_0_30_31
*1629 FILLER_0_30_311
*1630 FILLER_0_30_317
*1631 FILLER_0_30_37
*1632 FILLER_0_30_381
*1633 FILLER_0_30_387
*1634 FILLER_0_30_451
*1635 FILLER_0_30_457
*1636 FILLER_0_30_47
*1637 FILLER_0_30_489
*1638 FILLER_0_30_505
*1639 FILLER_0_30_55
*1640 FILLER_0_30_59
*1641 FILLER_0_30_62