*SPEF "ieee 1481-1999"
*DESIGN "gpios"
*DATE "11:11:11 Fri 11 11, 1111"
*VENDOR "OpenRCX"
*PROGRAM "Parallel Extraction"
*VERSION "1.0"
*DESIGN_FLOW "NAME_SCOPE LOCAL" "PIN_CAP NONE"
*DIVIDER /
*DELIMITER :
*BUS_DELIMITER []
*T_UNIT 1 NS
*C_UNIT 1 PF
*R_UNIT 1 OHM
*L_UNIT 1 HENRY

*NAME_MAP
*1 DAC_clk
*2 DAC_d1
*3 DAC_d2
*4 DAC_le
*5 RXD
*6 TXD
*7 addr[0]
*8 addr[1]
*9 addr[2]
*10 addr[3]
*11 bus_cyc
*12 bus_we
*13 data_in[0]
*14 data_in[1]
*15 data_in[2]
*16 data_in[3]
*17 data_in[4]
*18 data_in[5]
*19 data_in[6]
*20 data_in[7]
*21 data_out[0]
*22 data_out[1]
*23 data_out[2]
*24 data_out[3]
*25 data_out[4]
*26 data_out[5]
*27 data_out[6]
*28 data_out[7]
*29 io_in[0]
*30 io_in[10]
*31 io_in[11]
*32 io_in[12]
*33 io_in[13]
*34 io_in[14]
*35 io_in[15]
*36 io_in[1]
*37 io_in[2]
*38 io_in[3]
*39 io_in[4]
*40 io_in[5]
*41 io_in[6]
*42 io_in[7]
*43 io_in[8]
*44 io_in[9]
*45 io_oeb[0]
*46 io_oeb[10]
*47 io_oeb[11]
*48 io_oeb[12]
*49 io_oeb[13]
*50 io_oeb[14]
*51 io_oeb[15]
*52 io_oeb[1]
*53 io_oeb[2]
*54 io_oeb[3]
*55 io_oeb[4]
*56 io_oeb[5]
*57 io_oeb[6]
*58 io_oeb[7]
*59 io_oeb[8]
*60 io_oeb[9]
*61 io_out[0]
*62 io_out[10]
*63 io_out[11]
*64 io_out[12]
*65 io_out[13]
*66 io_out[14]
*67 io_out[15]
*68 io_out[1]
*69 io_out[2]
*70 io_out[3]
*71 io_out[4]
*72 io_out[5]
*73 io_out[6]
*74 io_out[7]
*75 io_out[8]
*76 io_out[9]
*77 irq0
*78 irq6
*79 irq7
*80 la_data_out[0]
*81 la_data_out[1]
*82 la_data_out[2]
*83 la_data_out[3]
*84 la_data_out[4]
*85 la_data_out[5]
*86 la_data_out[6]
*87 la_data_out[7]
*88 pwm0
*89 pwm1
*90 pwm2
*91 rst
*92 tmr0_clk
*93 tmr0_o
*94 tmr1_clk
*95 tmr1_o
*98 wb_clk_i
*99 DDRA\[0\]
*100 DDRA\[1\]
*101 DDRA\[2\]
*102 DDRA\[3\]
*103 DDRA\[4\]
*104 DDRA\[5\]
*105 DDRA\[6\]
*106 DDRA\[7\]
*107 DDRB\[0\]
*108 DDRB\[1\]
*109 DDRB\[2\]
*110 DDRB\[3\]
*111 DDRB\[4\]
*112 DDRB\[5\]
*113 DDRB\[6\]
*114 DDRB\[7\]
*115 PORTA\[0\]
*116 PORTA\[1\]
*117 PORTA\[2\]
*118 PORTA\[3\]
*119 PORTA\[4\]
*120 PORTA\[5\]
*121 PORTA\[6\]
*122 PORTA\[7\]
*123 PORTB\[0\]
*124 PORTB\[1\]
*125 PORTB\[2\]
*126 PORTB\[3\]
*127 PORTB\[4\]
*128 PORTB\[5\]
*129 PORTB\[6\]
*130 PORTB\[7\]
*131 SPA\[0\]
*132 SPA\[1\]
*133 SPA\[2\]
*134 SPA\[3\]
*135 SPA\[4\]
*136 SPA\[5\]
*137 SPA\[6\]
*138 SPA\[7\]
*139 SPB\[0\]
*140 SPB\[1\]
*141 SPB\[2\]
*142 SPB\[3\]
*143 SPB\[4\]
*144 SPB\[5\]
*145 SPB\[6\]
*146 SPB\[7\]
*147 _000_
*148 _001_
*149 _002_
*150 _003_
*151 _004_
*152 _005_
*153 _006_
*154 _007_
*155 _008_
*156 _009_
*157 _010_
*158 _011_
*159 _012_
*160 _013_
*161 _014_
*162 _015_
*163 _016_
*164 _017_
*165 _018_
*166 _019_
*167 _020_
*168 _021_
*169 _022_
*170 _023_
*171 _024_
*172 _025_
*173 _026_
*174 _027_
*175 _028_
*176 _029_
*177 _030_
*178 _031_
*179 _032_
*180 _033_
*181 _034_
*182 _035_
*183 _036_
*184 _037_
*185 _038_
*186 _039_
*187 _040_
*188 _041_
*189 _042_
*190 _043_
*191 _044_
*192 _045_
*193 _046_
*194 _047_
*195 _048_
*196 _049_
*197 _050_
*198 _051_
*199 _052_
*200 _053_
*201 _054_
*202 _055_
*203 _056_
*204 _057_
*205 _058_
*206 _059_
*207 _060_
*208 _061_
*209 _062_
*210 _063_
*211 _064_
*212 _065_
*213 _066_
*214 _067_
*215 _068_
*216 _069_
*217 _070_
*218 _071_
*219 _072_
*220 _073_
*221 _074_
*222 _075_
*223 _076_
*224 _077_
*225 _078_
*226 _079_
*227 _080_
*228 _081_
*229 _082_
*230 _083_
*231 _084_
*232 _085_
*233 _086_
*234 _087_
*235 _088_
*236 _089_
*237 _090_
*238 _091_
*239 _092_
*240 _093_
*241 _094_
*242 _095_
*243 _096_
*244 _097_
*245 _098_
*246 _099_
*247 _100_
*248 _101_
*249 _102_
*250 _103_
*251 _104_
*252 _105_
*253 _106_
*254 _107_
*255 _108_
*256 _109_
*257 _110_
*258 _111_
*259 _112_
*260 _113_
*261 _114_
*262 _115_
*263 _116_
*264 _117_
*265 _118_
*266 _119_
*267 _120_
*268 _121_
*269 _122_
*270 _123_
*271 _124_
*272 _125_
*273 _126_
*274 _127_
*275 _128_
*276 _129_
*277 _130_
*278 _131_
*279 _132_
*280 _133_
*281 _134_
*282 _135_
*283 _136_
*284 _137_
*285 _138_
*286 _139_
*287 _140_
*288 _141_
*289 _142_
*290 _143_
*291 _144_
*292 _145_
*293 _146_
*294 _147_
*295 _148_
*296 _149_
*297 _150_
*298 _151_
*299 _152_
*300 _153_
*301 _154_
*302 _155_
*303 _156_
*304 _157_
*305 _158_
*306 _159_
*307 _160_
*308 _161_
*309 _162_
*310 _163_
*311 _164_
*312 _165_
*313 _166_
*314 _167_
*315 _168_
*316 _169_
*317 _170_
*318 _171_
*319 _172_
*320 _173_
*321 _174_
*322 _175_
*323 _176_
*324 _177_
*325 _178_
*326 _179_
*327 _180_
*328 _181_
*329 _182_
*330 _183_
*331 _184_
*332 _185_
*333 _186_
*334 _187_
*335 _188_
*336 _189_
*337 _190_
*338 _191_
*339 _192_
*340 _193_
*341 _194_
*342 _195_
*343 _196_
*344 _197_
*345 _198_
*346 _199_
*347 _200_
*348 _201_
*349 _202_
*350 _203_
*351 _204_
*352 _205_
*353 _206_
*354 _207_
*355 _208_
*356 _209_
*357 _210_
*358 _211_
*359 _212_
*360 _213_
*361 _214_
*362 _215_
*363 _216_
*364 _217_
*365 _218_
*366 _219_
*367 _220_
*368 _221_
*369 _222_
*370 _223_
*371 _224_
*372 _225_
*373 _226_
*374 _227_
*375 _228_
*376 _229_
*377 _230_
*378 _231_
*379 _232_
*380 _233_
*381 _234_
*382 _235_
*383 _236_
*384 _237_
*385 _238_
*386 _239_
*387 _240_
*388 _241_
*389 _242_
*390 _243_
*391 _244_
*392 _245_
*393 _246_
*394 _247_
*395 _248_
*396 _249_
*397 _250_
*398 _251_
*399 _252_
*400 _253_
*401 _254_
*402 _255_
*403 _256_
*404 _257_
*405 _258_
*406 _259_
*407 _260_
*408 _261_
*409 _262_
*410 _263_
*411 _264_
*412 _265_
*413 _266_
*414 _267_
*415 _268_
*416 _269_
*417 _270_
*418 _271_
*419 _272_
*420 _273_
*421 _274_
*422 _275_
*423 _276_
*424 _277_
*425 _278_
*426 _279_
*427 _280_
*428 _281_
*429 _282_
*430 _283_
*431 _284_
*432 _285_
*433 _286_
*434 _287_
*435 _288_
*436 _289_
*437 _290_
*438 _291_
*439 _292_
*440 _293_
*441 _294_
*442 _295_
*443 _296_
*444 _297_
*445 _298_
*446 _299_
*447 _300_
*448 _301_
*449 _302_
*450 _303_
*451 _304_
*452 _305_
*453 _306_
*454 _307_
*455 _308_
*456 _309_
*457 _310_
*458 _311_
*459 _312_
*460 _313_
*461 _314_
*462 _315_
*463 _316_
*464 _317_
*465 _318_
*466 _319_
*467 _320_
*468 _321_
*469 _322_
*470 _323_
*471 _324_
*472 _325_
*473 _326_
*474 _327_
*475 _328_
*476 _329_
*477 _330_
*478 _331_
*479 _332_
*480 _333_
*481 _334_
*482 _335_
*483 _336_
*484 _337_
*485 _338_
*486 _339_
*487 _340_
*488 _341_
*489 _342_
*490 _343_
*491 _344_
*492 _345_
*493 _346_
*494 _347_
*495 _348_
*496 _349_
*497 _350_
*498 _351_
*499 _352_
*500 _353_
*501 _354_
*502 _355_
*503 _356_
*504 _357_
*505 _358_
*506 _359_
*507 _360_
*508 _361_
*509 _362_
*510 _363_
*511 _364_
*512 _365_
*513 _366_
*514 _367_
*515 _368_
*516 _369_
*517 _370_
*518 _371_
*519 _372_
*520 _373_
*521 _374_
*522 _375_
*523 _376_
*524 _377_
*525 _378_
*526 _379_
*527 _380_
*528 _381_
*529 _382_
*530 _383_
*531 _384_
*532 _385_
*533 _386_
*534 _387_
*535 _388_
*536 _389_
*537 _390_
*538 _391_
*539 _392_
*540 _393_
*541 _394_
*542 _395_
*543 _396_
*544 _397_
*545 _398_
*546 _399_
*547 clknet_0_wb_clk_i
*548 clknet_3_0__leaf_wb_clk_i
*549 clknet_3_1__leaf_wb_clk_i
*550 clknet_3_2__leaf_wb_clk_i
*551 clknet_3_3__leaf_wb_clk_i
*552 clknet_3_4__leaf_wb_clk_i
*553 clknet_3_5__leaf_wb_clk_i
*554 clknet_3_6__leaf_wb_clk_i
*555 clknet_3_7__leaf_wb_clk_i
*556 last_irg6_trigger
*557 last_irq0_trigger
*558 last_irq7_trigger
*559 net1
*560 net10
*561 net100
*562 net101
*563 net102
*564 net103
*565 net11
*566 net12
*567 net13
*568 net14
*569 net15
*570 net16
*571 net17
*572 net18
*573 net19
*574 net2
*575 net20
*576 net21
*577 net22
*578 net23
*579 net24
*580 net25
*581 net26
*582 net27
*583 net28
*584 net29
*585 net3
*586 net30
*587 net31
*588 net32
*589 net33
*590 net34
*591 net35
*592 net36
*593 net37
*594 net38
*595 net39
*596 net4
*597 net40
*598 net41
*599 net42
*600 net43
*601 net44
*602 net45
*603 net46
*604 net47
*605 net48
*606 net49
*607 net5
*608 net50
*609 net51
*610 net52
*611 net53
*612 net54
*613 net55
*614 net56
*615 net57
*616 net58
*617 net59
*618 net6
*619 net60
*620 net61
*621 net62
*622 net63
*623 net64
*624 net65
*625 net66
*626 net67
*627 net68
*628 net69
*629 net7
*630 net70
*631 net71
*632 net72
*633 net73
*634 net74
*635 net75
*636 net76
*637 net77
*638 net78
*639 net79
*640 net8
*641 net80
*642 net81
*643 net82
*644 net83
*645 net84
*646 net85
*647 net86
*648 net87
*649 net88
*650 net89
*651 net9
*652 net90
*653 net91
*654 net92
*655 net93
*656 net94
*657 net95
*658 net96
*659 net97
*660 net98
*661 net99
*662 ANTENNA__401__A1
*663 ANTENNA__403__I1
*664 ANTENNA__403__S
*665 ANTENNA__405__I
*666 ANTENNA__406__A1
*667 ANTENNA__406__A2
*668 ANTENNA__408__I0
*669 ANTENNA__408__I1
*670 ANTENNA__408__S
*671 ANTENNA__410__I0
*672 ANTENNA__410__I1
*673 ANTENNA__410__S
*674 ANTENNA__412__I0
*675 ANTENNA__412__I1
*676 ANTENNA__412__S
*677 ANTENNA__414__I0
*678 ANTENNA__414__I1
*679 ANTENNA__414__S
*680 ANTENNA__416__I
*681 ANTENNA__419__A1
*682 ANTENNA__420__A1
*683 ANTENNA__420__A2
*684 ANTENNA__421__A1
*685 ANTENNA__421__A2
*686 ANTENNA__422__A1
*687 ANTENNA__422__A2
*688 ANTENNA__423__A1
*689 ANTENNA__423__A2
*690 ANTENNA__425__A1
*691 ANTENNA__425__A2
*692 ANTENNA__429__S
*693 ANTENNA__433__A1
*694 ANTENNA__433__A2
*695 ANTENNA__434__I
*696 ANTENNA__435__A2
*697 ANTENNA__437__I0
*698 ANTENNA__437__S
*699 ANTENNA__439__I0
*700 ANTENNA__439__S
*701 ANTENNA__441__I0
*702 ANTENNA__441__S
*703 ANTENNA__443__I0
*704 ANTENNA__443__S
*705 ANTENNA__445__A1
*706 ANTENNA__445__A2
*707 ANTENNA__446__A1
*708 ANTENNA__447__A1
*709 ANTENNA__447__A2
*710 ANTENNA__448__A1
*711 ANTENNA__448__A2
*712 ANTENNA__449__A1
*713 ANTENNA__449__A2
*714 ANTENNA__450__A1
*715 ANTENNA__450__A2
*716 ANTENNA__451__A1
*717 ANTENNA__451__A2
*718 ANTENNA__453__A2
*719 ANTENNA__455__A1
*720 ANTENNA__455__A2
*721 ANTENNA__457__A2
*722 ANTENNA__458__A1
*723 ANTENNA__458__A2
*724 ANTENNA__460__A1
*725 ANTENNA__461__I
*726 ANTENNA__462__I
*727 ANTENNA__464__I
*728 ANTENNA__465__A1
*729 ANTENNA__465__A2
*730 ANTENNA__466__A2
*731 ANTENNA__467__I
*732 ANTENNA__468__I
*733 ANTENNA__472__I
*734 ANTENNA__473__I
*735 ANTENNA__474__I
*736 ANTENNA__475__A3
*737 ANTENNA__477__I
*738 ANTENNA__478__I
*739 ANTENNA__480__I
*740 ANTENNA__482__I
*741 ANTENNA__484__I
*742 ANTENNA__490__B2
*743 ANTENNA__490__C2
*744 ANTENNA__491__A1
*745 ANTENNA__494__I
*746 ANTENNA__495__A1
*747 ANTENNA__495__A2
*748 ANTENNA__496__I
*749 ANTENNA__497__I
*750 ANTENNA__502__I
*751 ANTENNA__504__I
*752 ANTENNA__511__A1
*753 ANTENNA__511__A2
*754 ANTENNA__511__B2
*755 ANTENNA__514__C
*756 ANTENNA__517__A1
*757 ANTENNA__517__A2
*758 ANTENNA__519__A2
*759 ANTENNA__519__C1
*760 ANTENNA__521__I
*761 ANTENNA__522__I
*762 ANTENNA__523__A1
*763 ANTENNA__525__C
*764 ANTENNA__529__A1
*765 ANTENNA__529__B2
*766 ANTENNA__531__I
*767 ANTENNA__533__I
*768 ANTENNA__534__A1
*769 ANTENNA__534__C1
*770 ANTENNA__535__I
*771 ANTENNA__536__A1
*772 ANTENNA__536__A2
*773 ANTENNA__536__B2
*774 ANTENNA__542__I
*775 ANTENNA__544__A1
*776 ANTENNA__544__B2
*777 ANTENNA__544__C2
*778 ANTENNA__545__A2
*779 ANTENNA__545__B1
*780 ANTENNA__545__B2
*781 ANTENNA__545__C1
*782 ANTENNA__546__A1
*783 ANTENNA__553__A1
*784 ANTENNA__553__B2
*785 ANTENNA__554__A1
*786 ANTENNA__554__B2
*787 ANTENNA__555__B1
*788 ANTENNA__555__B2
*789 ANTENNA__555__C1
*790 ANTENNA__556__A1
*791 ANTENNA__560__A1
*792 ANTENNA__560__B2
*793 ANTENNA__560__C2
*794 ANTENNA__561__A1
*795 ANTENNA__562__A1
*796 ANTENNA__562__A2
*797 ANTENNA__562__B2
*798 ANTENNA__563__A1
*799 ANTENNA__564__A1
*800 ANTENNA__564__B2
*801 ANTENNA__568__A1
*802 ANTENNA__568__B2
*803 ANTENNA__568__C2
*804 ANTENNA__569__B2
*805 ANTENNA__569__C1
*806 ANTENNA__570__A1
*807 ANTENNA__571__A1
*808 ANTENNA__571__B2
*809 ANTENNA__573__C
*810 ANTENNA__577__C
*811 ANTENNA__578__A1
*812 ANTENNA__578__B2
*813 ANTENNA__579__B2
*814 ANTENNA__580__A1
*815 ANTENNA__581__A1
*816 ANTENNA__581__B2
*817 ANTENNA__581__C1
*818 ANTENNA__583__C
*819 ANTENNA__584__I
*820 ANTENNA__585__A1
*821 ANTENNA__585__A2
*822 ANTENNA__588__A1
*823 ANTENNA__588__A3
*824 ANTENNA__589__A2
*825 ANTENNA__591__A1
*826 ANTENNA__593__I
*827 ANTENNA__594__A1
*828 ANTENNA__594__A3
*829 ANTENNA__595__A2
*830 ANTENNA__597__A1
*831 ANTENNA__599__I
*832 ANTENNA__600__A1
*833 ANTENNA__600__A3
*834 ANTENNA__601__A2
*835 ANTENNA__602__A1
*836 ANTENNA__604__I
*837 ANTENNA__606__A1
*838 ANTENNA__606__A2
*839 ANTENNA__609__A1
*840 ANTENNA__611__A2
*841 ANTENNA__615__I
*842 ANTENNA__618__A1
*843 ANTENNA__620__C
*844 ANTENNA__621__I
*845 ANTENNA__622__A1
*846 ANTENNA__627__A1
*847 ANTENNA__628__C
*848 ANTENNA__629__I
*849 ANTENNA__630__A1
*850 ANTENNA__634__A1
*851 ANTENNA__635__I
*852 ANTENNA__637__C
*853 ANTENNA__638__I
*854 ANTENNA__639__A1
*855 ANTENNA__642__I
*856 ANTENNA__643__A1
*857 ANTENNA__645__I
*858 ANTENNA__647__B
*859 ANTENNA__649__A2
*860 ANTENNA__651__A1
*861 ANTENNA__652__A2
*862 ANTENNA__654__A1
*863 ANTENNA__655__B
*864 ANTENNA__656__I
*865 ANTENNA__657__A1
*866 ANTENNA__659__B
*867 ANTENNA__660__A1
*868 ANTENNA__661__A1
*869 ANTENNA__662__B
*870 ANTENNA__663__I
*871 ANTENNA__664__A1
*872 ANTENNA__665__A1
*873 ANTENNA__669__A1
*874 ANTENNA__671__A1
*875 ANTENNA__673__I
*876 ANTENNA__674__A1
*877 ANTENNA__675__A1
*878 ANTENNA__677__A1
*879 ANTENNA__678__A1
*880 ANTENNA__680__A1
*881 ANTENNA__686__A1
*882 ANTENNA__687__A1
*883 ANTENNA__690__A1
*884 ANTENNA__692__I
*885 ANTENNA__693__A1
*886 ANTENNA__694__C
*887 ANTENNA__695__A1
*888 ANTENNA__696__A1
*889 ANTENNA__696__C
*890 ANTENNA__697__A1
*891 ANTENNA__699__A1
*892 ANTENNA__701__A1
*893 ANTENNA__702__A1
*894 ANTENNA__702__C
*895 ANTENNA__703__A1
*896 ANTENNA__704__A1
*897 ANTENNA__706__A1
*898 ANTENNA__707__A1
*899 ANTENNA__709__B
*900 ANTENNA__710__A1
*901 ANTENNA__711__A1
*902 ANTENNA__712__B
*903 ANTENNA__713__A1
*904 ANTENNA__713__A2
*905 ANTENNA__715__A1
*906 ANTENNA__716__A2
*907 ANTENNA__719__B
*908 ANTENNA__720__A1
*909 ANTENNA__722__B
*910 ANTENNA__723__A1
*911 ANTENNA__724__A1
*912 ANTENNA__725__I
*913 ANTENNA__728__A1
*914 ANTENNA__729__A1
*915 ANTENNA__732__A1
*916 ANTENNA__734__A1
*917 ANTENNA__736__A1
*918 ANTENNA__737__A1
*919 ANTENNA__739__A1
*920 ANTENNA__740__A1
*921 ANTENNA__743__A1
*922 ANTENNA__746__A1
*923 ANTENNA__746__A2
*924 ANTENNA__748__A1
*925 ANTENNA__749__A1
*926 ANTENNA__753__A1
*927 ANTENNA__756__A1
*928 ANTENNA__758__A1
*929 ANTENNA__759__A1
*930 ANTENNA__760__A1
*931 ANTENNA__763__A1
*932 ANTENNA__765__A1
*933 ANTENNA__767__A1
*934 ANTENNA__768__A1
*935 ANTENNA__770__A1
*936 ANTENNA__771__A1
*937 ANTENNA__773__A1
*938 ANTENNA__774__A1
*939 ANTENNA__776__B
*940 ANTENNA__777__A1
*941 ANTENNA__780__A1
*942 ANTENNA__781__A1
*943 ANTENNA__782__A1
*944 ANTENNA__782__A2
*945 ANTENNA__784__A1
*946 ANTENNA__785__A1
*947 ANTENNA__786__B
*948 ANTENNA__787__A1
*949 ANTENNA__788__A1
*950 ANTENNA__789__A1
*951 ANTENNA__791__A1
*952 ANTENNA__792__B
*953 ANTENNA__793__A1
*954 ANTENNA__794__A1
*955 ANTENNA__795__B
*956 ANTENNA__796__A1
*957 ANTENNA__797__A1
*958 ANTENNA__800__A1
*959 ANTENNA__801__A1
*960 ANTENNA__803__A1
*961 ANTENNA__805__A1
*962 ANTENNA__805__A2
*963 ANTENNA__807__A1
*964 ANTENNA__808__C
*965 ANTENNA__809__A1
*966 ANTENNA__809__A2
*967 ANTENNA__811__A1
*968 ANTENNA__812__A1
*969 ANTENNA__814__A1
*970 ANTENNA__815__A1
*971 ANTENNA__817__A1
*972 ANTENNA__818__C
*973 ANTENNA__819__A1
*974 ANTENNA__821__A1
*975 ANTENNA__824__A1
*976 ANTENNA__825__A1
*977 ANTENNA__827__A1
*978 ANTENNA__828__A1
*979 ANTENNA__830__A1
*980 ANTENNA__831__A1
*981 ANTENNA__833__A1
*982 ANTENNA__834__A1
*983 ANTENNA__835__CLK
*984 ANTENNA__836__CLK
*985 ANTENNA__837__CLK
*986 ANTENNA__838__CLK
*987 ANTENNA__839__CLK
*988 ANTENNA__840__CLK
*989 ANTENNA__841__CLK
*990 ANTENNA__842__CLK
*991 ANTENNA__843__CLK
*992 ANTENNA__844__CLK
*993 ANTENNA__845__CLK
*994 ANTENNA__846__CLK
*995 ANTENNA__847__CLK
*996 ANTENNA__848__CLK
*997 ANTENNA__849__CLK
*998 ANTENNA__850__CLK
*999 ANTENNA__851__CLK
*1000 ANTENNA__852__CLK
*1001 ANTENNA__853__CLK
*1002 ANTENNA__854__CLK
*1003 ANTENNA__855__CLK
*1004 ANTENNA__856__CLK
*1005 ANTENNA__857__CLK
*1006 ANTENNA__858__CLK
*1007 ANTENNA__859__CLK
*1008 ANTENNA__860__CLK
*1009 ANTENNA__861__CLK
*1010 ANTENNA__862__CLK
*1011 ANTENNA__863__CLK
*1012 ANTENNA__864__CLK
*1013 ANTENNA__865__CLK
*1014 ANTENNA__866__CLK
*1015 ANTENNA__867__CLK
*1016 ANTENNA__868__CLK
*1017 ANTENNA__869__CLK
*1018 ANTENNA__870__CLK
*1019 ANTENNA__871__CLK
*1020 ANTENNA__872__CLK
*1021 ANTENNA__873__CLK
*1022 ANTENNA__874__CLK
*1023 ANTENNA__875__CLK
*1024 ANTENNA__876__CLK
*1025 ANTENNA__877__CLK
*1026 ANTENNA__878__CLK
*1027 ANTENNA__879__CLK
*1028 ANTENNA__880__CLK
*1029 ANTENNA__881__CLK
*1030 ANTENNA__882__CLK
*1031 ANTENNA__883__CLK
*1032 ANTENNA__884__CLK
*1033 ANTENNA__885__CLK
*1034 ANTENNA__886__CLK
*1035 ANTENNA__887__CLK
*1036 ANTENNA__888__CLK
*1037 ANTENNA__889__CLK
*1038 ANTENNA__890__CLK
*1039 ANTENNA__891__CLK
*1040 ANTENNA__892__CLK
*1041 ANTENNA__893__CLK
*1042 ANTENNA__894__CLK
*1043 ANTENNA__895__CLK
*1044 ANTENNA__896__CLK
*1045 ANTENNA__897__CLK
*1046 ANTENNA__898__CLK
*1047 ANTENNA__899__CLK
*1048 ANTENNA__900__CLK
*1049 ANTENNA__901__CLK
*1050 ANTENNA__902__CLK
*1051 ANTENNA__903__CLK
*1052 ANTENNA__904__CLK
*1053 ANTENNA_clkbuf_0_wb_clk_i_I
*1054 ANTENNA_clkbuf_3_0__f_wb_clk_i_I
*1055 ANTENNA_clkbuf_3_1__f_wb_clk_i_I
*1056 ANTENNA_clkbuf_3_2__f_wb_clk_i_I
*1057 ANTENNA_clkbuf_3_3__f_wb_clk_i_I
*1058 ANTENNA_clkbuf_3_4__f_wb_clk_i_I
*1059 ANTENNA_clkbuf_3_5__f_wb_clk_i_I
*1060 ANTENNA_clkbuf_3_6__f_wb_clk_i_I
*1061 ANTENNA_clkbuf_3_7__f_wb_clk_i_I
*1062 ANTENNA_input10_I
*1063 ANTENNA_input11_I
*1064 ANTENNA_input12_I
*1065 ANTENNA_input13_I
*1066 ANTENNA_input14_I
*1067 ANTENNA_input15_I
*1068 ANTENNA_input16_I
*1069 ANTENNA_input17_I
*1070 ANTENNA_input18_I
*1071 ANTENNA_input19_I
*1072 ANTENNA_input1_I
*1073 ANTENNA_input20_I
*1074 ANTENNA_input21_I
*1075 ANTENNA_input22_I
*1076 ANTENNA_input23_I
*1077 ANTENNA_input24_I
*1078 ANTENNA_input25_I
*1079 ANTENNA_input26_I
*1080 ANTENNA_input27_I
*1081 ANTENNA_input28_I
*1082 ANTENNA_input29_I
*1083 ANTENNA_input2_I
*1084 ANTENNA_input30_I
*1085 ANTENNA_input31_I
*1086 ANTENNA_input32_I
*1087 ANTENNA_input33_I
*1088 ANTENNA_input34_I
*1089 ANTENNA_input35_I
*1090 ANTENNA_input36_I
*1091 ANTENNA_input37_I
*1092 ANTENNA_input38_I
*1093 ANTENNA_input39_I
*1094 ANTENNA_input3_I
*1095 ANTENNA_input40_I
*1096 ANTENNA_input41_I
*1097 ANTENNA_input4_I
*1098 ANTENNA_input5_I
*1099 ANTENNA_input6_I
*1100 ANTENNA_input7_I
*1101 ANTENNA_input8_I
*1102 ANTENNA_input9_I
*1103 ANTENNA_output53_I
*1104 ANTENNA_output64_I
*1105 ANTENNA_output65_I
*1106 ANTENNA_output83_I
*1107 ANTENNA_output84_I
*1108 ANTENNA_output85_I
*1109 FILLER_0_0_104
*1110 FILLER_0_0_108
*1111 FILLER_0_0_138
*1112 FILLER_0_0_165
*1113 FILLER_0_0_169
*1114 FILLER_0_0_172
*1115 FILLER_0_0_174
*1116 FILLER_0_0_201
*1117 FILLER_0_0_203
*1118 FILLER_0_0_206
*1119 FILLER_0_0_210
*1120 FILLER_0_0_237
*1121 FILLER_0_0_240
*1122 FILLER_0_0_244
*1123 FILLER_0_0_300
*1124 FILLER_0_0_314
*1125 FILLER_0_0_316
*1126 FILLER_0_0_325
*1127 FILLER_0_0_333
*1128 FILLER_0_0_337
*1129 FILLER_0_0_339
*1130 FILLER_0_0_36
*1131 FILLER_0_0_368
*1132 FILLER_0_0_372
*1133 FILLER_0_0_40
*1134 FILLER_0_0_402
*1135 FILLER_0_0_406
*1136 FILLER_0_0_418
*1137 FILLER_0_0_70
*1138 FILLER_0_0_74
*1139 FILLER_0_10_101
*1140 FILLER_0_10_107
*1141 FILLER_0_10_115
*1142 FILLER_0_10_119
*1143 FILLER_0_10_132
*1144 FILLER_0_10_136
*1145 FILLER_0_10_138
*1146 FILLER_0_10_170
*1147 FILLER_0_10_172
*1148 FILLER_0_10_177
*1149 FILLER_0_10_179
*1150 FILLER_0_10_186
*1151 FILLER_0_10_2
*1152 FILLER_0_10_218
*1153 FILLER_0_10_22
*1154 FILLER_0_10_234
*1155 FILLER_0_10_242
*1156 FILLER_0_10_244
*1157 FILLER_0_10_247
*1158 FILLER_0_10_294
*1159 FILLER_0_10_298
*1160 FILLER_0_10_30
*1161 FILLER_0_10_314
*1162 FILLER_0_10_317
*1163 FILLER_0_10_34
*1164 FILLER_0_10_37
*1165 FILLER_0_10_381
*1166 FILLER_0_10_387
*1167 FILLER_0_10_419
*1168 FILLER_0_10_6
*1169 FILLER_0_11_10
*1170 FILLER_0_11_103
*1171 FILLER_0_11_105
*1172 FILLER_0_11_114
*1173 FILLER_0_11_118
*1174 FILLER_0_11_122
*1175 FILLER_0_11_138
*1176 FILLER_0_11_142
*1177 FILLER_0_11_150
*1178 FILLER_0_11_162
*1179 FILLER_0_11_176
*1180 FILLER_0_11_208
*1181 FILLER_0_11_212
*1182 FILLER_0_11_228
*1183 FILLER_0_11_240
*1184 FILLER_0_11_244
*1185 FILLER_0_11_256
*1186 FILLER_0_11_26
*1187 FILLER_0_11_260
*1188 FILLER_0_11_268
*1189 FILLER_0_11_272
*1190 FILLER_0_11_282
*1191 FILLER_0_11_34
*1192 FILLER_0_11_346
*1193 FILLER_0_11_352
*1194 FILLER_0_11_38
*1195 FILLER_0_11_416
*1196 FILLER_0_11_72
*1197 FILLER_0_11_76
*1198 FILLER_0_11_99
*1199 FILLER_0_12_120
*1200 FILLER_0_12_122
*1201 FILLER_0_12_173
*1202 FILLER_0_12_177
*1203 FILLER_0_12_181
*1204 FILLER_0_12_189
*1205 FILLER_0_12_193
*1206 FILLER_0_12_195
*1207 FILLER_0_12_2
*1208 FILLER_0_12_22
*1209 FILLER_0_12_225
*1210 FILLER_0_12_229
*1211 FILLER_0_12_238
*1212 FILLER_0_12_242
*1213 FILLER_0_12_247
*1214 FILLER_0_12_263
*1215 FILLER_0_12_267
*1216 FILLER_0_12_271
*1217 FILLER_0_12_30
*1218 FILLER_0_12_303
*1219 FILLER_0_12_311
*1220 FILLER_0_12_317
*1221 FILLER_0_12_34
*1222 FILLER_0_12_37
*1223 FILLER_0_12_381
*1224 FILLER_0_12_387
*1225 FILLER_0_12_419
*1226 FILLER_0_12_6
*1227 FILLER_0_12_69
*1228 FILLER_0_12_85
*1229 FILLER_0_12_87
*1230 FILLER_0_12_96
*1231 FILLER_0_13_10
*1232 FILLER_0_13_124
*1233 FILLER_0_13_142
*1234 FILLER_0_13_176
*1235 FILLER_0_13_178
*1236 FILLER_0_13_212
*1237 FILLER_0_13_228
*1238 FILLER_0_13_230
*1239 FILLER_0_13_233
*1240 FILLER_0_13_240
*1241 FILLER_0_13_244
*1242 FILLER_0_13_248
*1243 FILLER_0_13_273
*1244 FILLER_0_13_277
*1245 FILLER_0_13_279
*1246 FILLER_0_13_282
*1247 FILLER_0_13_346
*1248 FILLER_0_13_352
*1249 FILLER_0_13_416
*1250 FILLER_0_13_42
*1251 FILLER_0_13_58
*1252 FILLER_0_13_66
*1253 FILLER_0_13_86
*1254 FILLER_0_13_92
*1255 FILLER_0_14_10
*1256 FILLER_0_14_102
*1257 FILLER_0_14_104
*1258 FILLER_0_14_107
*1259 FILLER_0_14_126
*1260 FILLER_0_14_128
*1261 FILLER_0_14_135
*1262 FILLER_0_14_158
*1263 FILLER_0_14_174
*1264 FILLER_0_14_185
*1265 FILLER_0_14_243
*1266 FILLER_0_14_26
*1267 FILLER_0_14_297
*1268 FILLER_0_14_313
*1269 FILLER_0_14_317
*1270 FILLER_0_14_34
*1271 FILLER_0_14_37
*1272 FILLER_0_14_381
*1273 FILLER_0_14_387
*1274 FILLER_0_14_403
*1275 FILLER_0_14_41
*1276 FILLER_0_14_411
*1277 FILLER_0_14_45
*1278 FILLER_0_14_61
*1279 FILLER_0_14_65
*1280 FILLER_0_14_67
*1281 FILLER_0_14_75
*1282 FILLER_0_14_83
*1283 FILLER_0_14_90
*1284 FILLER_0_14_94
*1285 FILLER_0_15_109
*1286 FILLER_0_15_142
*1287 FILLER_0_15_146
*1288 FILLER_0_15_154
*1289 FILLER_0_15_158
*1290 FILLER_0_15_160
*1291 FILLER_0_15_174
*1292 FILLER_0_15_188
*1293 FILLER_0_15_192
*1294 FILLER_0_15_2
*1295 FILLER_0_15_208
*1296 FILLER_0_15_212
*1297 FILLER_0_15_230
*1298 FILLER_0_15_238
*1299 FILLER_0_15_242
*1300 FILLER_0_15_245
*1301 FILLER_0_15_253
*1302 FILLER_0_15_261
*1303 FILLER_0_15_269
*1304 FILLER_0_15_282
*1305 FILLER_0_15_298
*1306 FILLER_0_15_306
*1307 FILLER_0_15_310
*1308 FILLER_0_15_342
*1309 FILLER_0_15_346
*1310 FILLER_0_15_352
*1311 FILLER_0_15_416
*1312 FILLER_0_15_46
*1313 FILLER_0_15_50
*1314 FILLER_0_15_52
*1315 FILLER_0_15_55
*1316 FILLER_0_15_59
*1317 FILLER_0_15_6
*1318 FILLER_0_15_67
*1319 FILLER_0_15_69
*1320 FILLER_0_15_83
*1321 FILLER_0_15_87
*1322 FILLER_0_15_95
*1323 FILLER_0_15_97
*1324 FILLER_0_16_100
*1325 FILLER_0_16_102
*1326 FILLER_0_16_113
*1327 FILLER_0_16_115
*1328 FILLER_0_16_128
*1329 FILLER_0_16_150
*1330 FILLER_0_16_168
*1331 FILLER_0_16_172
*1332 FILLER_0_16_174
*1333 FILLER_0_16_177
*1334 FILLER_0_16_183
*1335 FILLER_0_16_2
*1336 FILLER_0_16_215
*1337 FILLER_0_16_22
*1338 FILLER_0_16_231
*1339 FILLER_0_16_239
*1340 FILLER_0_16_243
*1341 FILLER_0_16_247
*1342 FILLER_0_16_263
*1343 FILLER_0_16_30
*1344 FILLER_0_16_303
*1345 FILLER_0_16_312
*1346 FILLER_0_16_314
*1347 FILLER_0_16_32
*1348 FILLER_0_16_348
*1349 FILLER_0_16_37
*1350 FILLER_0_16_380
*1351 FILLER_0_16_384
*1352 FILLER_0_16_387
*1353 FILLER_0_16_419
*1354 FILLER_0_16_54
*1355 FILLER_0_16_6
*1356 FILLER_0_16_63
*1357 FILLER_0_16_67
*1358 FILLER_0_16_71
*1359 FILLER_0_16_73
*1360 FILLER_0_16_80
*1361 FILLER_0_16_96
*1362 FILLER_0_17_10
*1363 FILLER_0_17_120
*1364 FILLER_0_17_136
*1365 FILLER_0_17_14
*1366 FILLER_0_17_142
*1367 FILLER_0_17_150
*1368 FILLER_0_17_152
*1369 FILLER_0_17_159
*1370 FILLER_0_17_212
*1371 FILLER_0_17_216
*1372 FILLER_0_17_250
*1373 FILLER_0_17_260
*1374 FILLER_0_17_267
*1375 FILLER_0_17_271
*1376 FILLER_0_17_279
*1377 FILLER_0_17_287
*1378 FILLER_0_17_291
*1379 FILLER_0_17_299
*1380 FILLER_0_17_301
*1381 FILLER_0_17_318
*1382 FILLER_0_17_322
*1383 FILLER_0_17_326
*1384 FILLER_0_17_342
*1385 FILLER_0_17_352
*1386 FILLER_0_17_416
*1387 FILLER_0_17_45
*1388 FILLER_0_17_60
*1389 FILLER_0_17_62
*1390 FILLER_0_17_65
*1391 FILLER_0_17_67
*1392 FILLER_0_17_72
*1393 FILLER_0_17_80
*1394 FILLER_0_17_88
*1395 FILLER_0_18_101
*1396 FILLER_0_18_157
*1397 FILLER_0_18_167
*1398 FILLER_0_18_171
*1399 FILLER_0_18_177
*1400 FILLER_0_18_2
*1401 FILLER_0_18_209
*1402 FILLER_0_18_213
*1403 FILLER_0_18_224
*1404 FILLER_0_18_228
*1405 FILLER_0_18_236
*1406 FILLER_0_18_238
*1407 FILLER_0_18_247
*1408 FILLER_0_18_249
*1409 FILLER_0_18_265
*1410 FILLER_0_18_275
*1411 FILLER_0_18_279
*1412 FILLER_0_18_282
*1413 FILLER_0_18_298
*1414 FILLER_0_18_306
*1415 FILLER_0_18_313
*1416 FILLER_0_18_317
*1417 FILLER_0_18_321
*1418 FILLER_0_18_37
*1419 FILLER_0_18_387
*1420 FILLER_0_18_419
*1421 FILLER_0_18_73
*1422 FILLER_0_18_77
*1423 FILLER_0_18_93
*1424 FILLER_0_19_12
*1425 FILLER_0_19_130
*1426 FILLER_0_19_134
*1427 FILLER_0_19_138
*1428 FILLER_0_19_142
*1429 FILLER_0_19_144
*1430 FILLER_0_19_181
*1431 FILLER_0_19_197
*1432 FILLER_0_19_199
*1433 FILLER_0_19_212
*1434 FILLER_0_19_214
*1435 FILLER_0_19_252
*1436 FILLER_0_19_256
*1437 FILLER_0_19_262
*1438 FILLER_0_19_266
*1439 FILLER_0_19_28
*1440 FILLER_0_19_332
*1441 FILLER_0_19_348
*1442 FILLER_0_19_352
*1443 FILLER_0_19_36
*1444 FILLER_0_19_416
*1445 FILLER_0_19_50
*1446 FILLER_0_19_54
*1447 FILLER_0_19_58
*1448 FILLER_0_19_62
*1449 FILLER_0_19_72
*1450 FILLER_0_19_74
*1451 FILLER_0_19_77
*1452 FILLER_0_19_8
*1453 FILLER_0_19_81
*1454 FILLER_0_19_85
*1455 FILLER_0_19_89
*1456 FILLER_0_1_102
*1457 FILLER_0_1_12
*1458 FILLER_0_1_129
*1459 FILLER_0_1_137
*1460 FILLER_0_1_139
*1461 FILLER_0_1_142
*1462 FILLER_0_1_150
*1463 FILLER_0_1_154
*1464 FILLER_0_1_156
*1465 FILLER_0_1_16
*1466 FILLER_0_1_183
*1467 FILLER_0_1_187
*1468 FILLER_0_1_203
*1469 FILLER_0_1_207
*1470 FILLER_0_1_209
*1471 FILLER_0_1_212
*1472 FILLER_0_1_228
*1473 FILLER_0_1_24
*1474 FILLER_0_1_255
*1475 FILLER_0_1_271
*1476 FILLER_0_1_279
*1477 FILLER_0_1_28
*1478 FILLER_0_1_282
*1479 FILLER_0_1_30
*1480 FILLER_0_1_309
*1481 FILLER_0_1_341
*1482 FILLER_0_1_345
*1483 FILLER_0_1_347
*1484 FILLER_0_1_352
*1485 FILLER_0_1_354
*1486 FILLER_0_1_381
*1487 FILLER_0_1_397
*1488 FILLER_0_1_405
*1489 FILLER_0_1_408
*1490 FILLER_0_1_57
*1491 FILLER_0_1_65
*1492 FILLER_0_1_69
*1493 FILLER_0_1_8
*1494 FILLER_0_1_98
*1495 FILLER_0_20_101
*1496 FILLER_0_20_107
*1497 FILLER_0_20_109
*1498 FILLER_0_20_118
*1499 FILLER_0_20_120
*1500 FILLER_0_20_134
*1501 FILLER_0_20_138
*1502 FILLER_0_20_146
*1503 FILLER_0_20_152
*1504 FILLER_0_20_156
*1505 FILLER_0_20_158
*1506 FILLER_0_20_164
*1507 FILLER_0_20_168
*1508 FILLER_0_20_172
*1509 FILLER_0_20_174
*1510 FILLER_0_20_177
*1511 FILLER_0_20_2
*1512 FILLER_0_20_209
*1513 FILLER_0_20_225
*1514 FILLER_0_20_235
*1515 FILLER_0_20_239
*1516 FILLER_0_20_243
*1517 FILLER_0_20_247
*1518 FILLER_0_20_251
*1519 FILLER_0_20_259
*1520 FILLER_0_20_265
*1521 FILLER_0_20_269
*1522 FILLER_0_20_276
*1523 FILLER_0_20_282
*1524 FILLER_0_20_298
*1525 FILLER_0_20_300
*1526 FILLER_0_20_303
*1527 FILLER_0_20_307
*1528 FILLER_0_20_322
*1529 FILLER_0_20_326
*1530 FILLER_0_20_330
*1531 FILLER_0_20_34
*1532 FILLER_0_20_362
*1533 FILLER_0_20_37
*1534 FILLER_0_20_378
*1535 FILLER_0_20_382
*1536 FILLER_0_20_384
*1537 FILLER_0_20_387
*1538 FILLER_0_20_419
*1539 FILLER_0_20_53
*1540 FILLER_0_20_61
*1541 FILLER_0_20_65
*1542 FILLER_0_21_12
*1543 FILLER_0_21_138
*1544 FILLER_0_21_142
*1545 FILLER_0_21_158
*1546 FILLER_0_21_166
*1547 FILLER_0_21_180
*1548 FILLER_0_21_188
*1549 FILLER_0_21_194
*1550 FILLER_0_21_198
*1551 FILLER_0_21_202
*1552 FILLER_0_21_206
*1553 FILLER_0_21_212
*1554 FILLER_0_21_227
*1555 FILLER_0_21_231
*1556 FILLER_0_21_247
*1557 FILLER_0_21_255
*1558 FILLER_0_21_257
*1559 FILLER_0_21_265
*1560 FILLER_0_21_269
*1561 FILLER_0_21_277
*1562 FILLER_0_21_279
*1563 FILLER_0_21_282
*1564 FILLER_0_21_290
*1565 FILLER_0_21_294
*1566 FILLER_0_21_308
*1567 FILLER_0_21_310
*1568 FILLER_0_21_352
*1569 FILLER_0_21_384
*1570 FILLER_0_21_400
*1571 FILLER_0_21_408
*1572 FILLER_0_21_44
*1573 FILLER_0_21_52
*1574 FILLER_0_21_56
*1575 FILLER_0_21_60
*1576 FILLER_0_21_72
*1577 FILLER_0_21_74
*1578 FILLER_0_21_8
*1579 FILLER_0_22_107
*1580 FILLER_0_22_109
*1581 FILLER_0_22_150
*1582 FILLER_0_22_166
*1583 FILLER_0_22_172
*1584 FILLER_0_22_174
*1585 FILLER_0_22_177
*1586 FILLER_0_22_181
*1587 FILLER_0_22_183
*1588 FILLER_0_22_202
*1589 FILLER_0_22_206
*1590 FILLER_0_22_209
*1591 FILLER_0_22_221
*1592 FILLER_0_22_237
*1593 FILLER_0_22_241
*1594 FILLER_0_22_247
*1595 FILLER_0_22_249
*1596 FILLER_0_22_28
*1597 FILLER_0_22_298
*1598 FILLER_0_22_302
*1599 FILLER_0_22_309
*1600 FILLER_0_22_313
*1601 FILLER_0_22_32
*1602 FILLER_0_22_325
*1603 FILLER_0_22_327
*1604 FILLER_0_22_34
*1605 FILLER_0_22_359
*1606 FILLER_0_22_37
*1607 FILLER_0_22_375
*1608 FILLER_0_22_383
*1609 FILLER_0_22_387
*1610 FILLER_0_22_419
*1611 FILLER_0_22_87
*1612 FILLER_0_23_139
*1613 FILLER_0_23_142
*1614 FILLER_0_23_158
*1615 FILLER_0_23_160
*1616 FILLER_0_23_168
*1617 FILLER_0_23_183
*1618 FILLER_0_23_2
*1619 FILLER_0_23_203
*1620 FILLER_0_23_207
*1621 FILLER_0_23_212
*1622 FILLER_0_23_216
*1623 FILLER_0_23_282
*1624 FILLER_0_23_290
*1625 FILLER_0_23_300
*1626 FILLER_0_23_304
*1627 FILLER_0_23_320
*1628 FILLER_0_23_324
*1629 FILLER_0_23_328
*1630 FILLER_0_23_344
*1631 FILLER_0_23_348
*1632 FILLER_0_23_352
*1633 FILLER_0_23_36
*1634 FILLER_0_23_40
*1635 FILLER_0_23_416
*1636 FILLER_0_23_58
*1637 FILLER_0_23_6
*1638 FILLER_0_24_103
*1639 FILLER_0_24_107
*1640 FILLER_0_24_143
*1641 FILLER_0_24_147
*1642 FILLER_0_24_149
*1643 FILLER_0_24_156
*1644 FILLER_0_24_172
*1645 FILLER_0_24_185
*1646 FILLER_0_24_2
*1647 FILLER_0_24_217
*1648 FILLER_0_24_221
*1649 FILLER_0_24_237