*SPEF "ieee 1481-1999"
*DESIGN "timers"
*DATE "11:11:11 Fri 11 11, 1111"
*VENDOR "OpenRCX"
*PROGRAM "Parallel Extraction"
*VERSION "1.0"
*DESIGN_FLOW "NAME_SCOPE LOCAL" "PIN_CAP NONE"
*DIVIDER /
*DELIMITER :
*BUS_DELIMITER []
*T_UNIT 1 NS
*C_UNIT 1 PF
*R_UNIT 1 OHM
*L_UNIT 1 HENRY

*NAME_MAP
*1 addr[0]
*2 addr[1]
*3 addr[2]
*4 addr[3]
*5 addr[4]
*6 addr[5]
*7 bus_cyc
*8 bus_we
*9 data_in[0]
*10 data_in[1]
*11 data_in[2]
*12 data_in[3]
*13 data_in[4]
*14 data_in[5]
*15 data_in[6]
*16 data_in[7]
*17 data_out[0]
*18 data_out[1]
*19 data_out[2]
*20 data_out[3]
*21 data_out[4]
*22 data_out[5]
*23 data_out[6]
*24 data_out[7]
*25 irq1
*26 irq2
*27 irq5
*28 pwm0
*29 pwm1
*30 pwm2
*31 rst
*32 tmr0_clk
*33 tmr0_o
*34 tmr1_clk
*35 tmr1_o
*38 wb_clk_i
*39 _0000_
*40 _0001_
*41 _0002_
*42 _0003_
*43 _0004_
*44 _0005_
*45 _0006_
*46 _0007_
*47 _0008_
*48 _0009_
*49 _0010_
*50 _0011_
*51 _0012_
*52 _0013_
*53 _0014_
*54 _0015_
*55 _0016_
*56 _0017_
*57 _0018_
*58 _0019_
*59 _0020_
*60 _0021_
*61 _0022_
*62 _0023_
*63 _0024_
*64 _0025_
*65 _0026_
*66 _0027_
*67 _0028_
*68 _0029_
*69 _0030_
*70 _0031_
*71 _0032_
*72 _0033_
*73 _0034_
*74 _0035_
*75 _0036_
*76 _0037_
*77 _0038_
*78 _0039_
*79 _0040_
*80 _0041_
*81 _0042_
*82 _0043_
*83 _0044_
*84 _0045_
*85 _0046_
*86 _0047_
*87 _0048_
*88 _0049_
*89 _0050_
*90 _0051_
*91 _0052_
*92 _0053_
*93 _0054_
*94 _0055_
*95 _0056_
*96 _0057_
*97 _0058_
*98 _0059_
*99 _0060_
*100 _0061_
*101 _0062_
*102 _0063_
*103 _0064_
*104 _0065_
*105 _0066_
*106 _0067_
*107 _0068_
*108 _0069_
*109 _0070_
*110 _0071_
*111 _0072_
*112 _0073_
*113 _0074_
*114 _0075_
*115 _0076_
*116 _0077_
*117 _0078_
*118 _0079_
*119 _0080_
*120 _0081_
*121 _0082_
*122 _0083_
*123 _0084_
*124 _0085_
*125 _0086_
*126 _0087_
*127 _0088_
*128 _0089_
*129 _0090_
*130 _0091_
*131 _0092_
*132 _0093_
*133 _0094_
*134 _0095_
*135 _0096_
*136 _0097_
*137 _0098_
*138 _0099_
*139 _0100_
*140 _0101_
*141 _0102_
*142 _0103_
*143 _0104_
*144 _0105_
*145 _0106_
*146 _0107_
*147 _0108_
*148 _0109_
*149 _0110_
*150 _0111_
*151 _0112_
*152 _0113_
*153 _0114_
*154 _0115_
*155 _0116_
*156 _0117_
*157 _0118_
*158 _0119_
*159 _0120_
*160 _0121_
*161 _0122_
*162 _0123_
*163 _0124_
*164 _0125_
*165 _0126_
*166 _0127_
*167 _0128_
*168 _0129_
*169 _0130_
*170 _0131_
*171 _0132_
*172 _0133_
*173 _0134_
*174 _0135_
*175 _0136_
*176 _0137_
*177 _0138_
*178 _0139_
*179 _0140_
*180 _0141_
*181 _0142_
*182 _0143_
*183 _0144_
*184 _0145_
*185 _0146_
*186 _0147_
*187 _0148_
*188 _0149_
*189 _0150_
*190 _0151_
*191 _0152_
*192 _0153_
*193 _0154_
*194 _0155_
*195 _0156_
*196 _0157_
*197 _0158_
*198 _0159_
*199 _0160_
*200 _0161_
*201 _0162_
*202 _0163_
*203 _0164_
*204 _0165_
*205 _0166_
*206 _0167_
*207 _0168_
*208 _0169_
*209 _0170_
*210 _0171_
*211 _0172_
*212 _0173_
*213 _0174_
*214 _0175_
*215 _0176_
*216 _0177_
*217 _0178_
*218 _0179_
*219 _0180_
*220 _0181_
*221 _0182_
*222 _0183_
*223 _0184_
*224 _0185_
*225 _0186_
*226 _0187_
*227 _0188_
*228 _0189_
*229 _0190_
*230 _0191_
*231 _0192_
*232 _0193_
*233 _0194_
*234 _0195_
*235 _0196_
*236 _0197_
*237 _0198_
*238 _0199_
*239 _0200_
*240 _0201_
*241 _0202_
*242 _0203_
*243 _0204_
*244 _0205_
*245 _0206_
*246 _0207_
*247 _0208_
*248 _0209_
*249 _0210_
*250 _0211_
*251 _0212_
*252 _0213_
*253 _0214_
*254 _0215_
*255 _0216_
*256 _0217_
*257 _0218_
*258 _0219_
*259 _0220_
*260 _0221_
*261 _0222_
*262 _0223_
*263 _0224_
*264 _0225_
*265 _0226_
*266 _0227_
*267 _0228_
*268 _0229_
*269 _0230_
*270 _0231_
*271 _0232_
*272 _0233_
*273 _0234_
*274 _0235_
*275 _0236_
*276 _0237_
*277 _0238_
*278 _0239_
*279 _0240_
*280 _0241_
*281 _0242_
*282 _0243_
*283 _0244_
*284 _0245_
*285 _0246_
*286 _0247_
*287 _0248_
*288 _0249_
*289 _0250_
*290 _0251_
*291 _0252_
*292 _0253_
*293 _0254_
*294 _0255_
*295 _0256_
*296 _0257_
*297 _0258_
*298 _0259_
*299 _0260_
*300 _0261_
*301 _0262_
*302 _0263_
*303 _0264_
*304 _0265_
*305 _0266_
*306 _0267_
*307 _0268_
*308 _0269_
*309 _0270_
*310 _0271_
*311 _0272_
*312 _0273_
*313 _0274_
*314 _0275_
*315 _0276_
*316 _0277_
*317 _0278_
*318 _0279_
*319 _0280_
*320 _0281_
*321 _0282_
*322 _0283_
*323 _0284_
*324 _0285_
*325 _0286_
*326 _0287_
*327 _0288_
*328 _0289_
*329 _0290_
*330 _0291_
*331 _0292_
*332 _0293_
*333 _0294_
*334 _0295_
*335 _0296_
*336 _0297_
*337 _0298_
*338 _0299_
*339 _0300_
*340 _0301_
*341 _0302_
*342 _0303_
*343 _0304_
*344 _0305_
*345 _0306_
*346 _0307_
*347 _0308_
*348 _0309_
*349 _0310_
*350 _0311_
*351 _0312_
*352 _0313_
*353 _0314_
*354 _0315_
*355 _0316_
*356 _0317_
*357 _0318_
*358 _0319_
*359 _0320_
*360 _0321_
*361 _0322_
*362 _0323_
*363 _0324_
*364 _0325_
*365 _0326_
*366 _0327_
*367 _0328_
*368 _0329_
*369 _0330_
*370 _0331_
*371 _0332_
*372 _0333_
*373 _0334_
*374 _0335_
*375 _0336_
*376 _0337_
*377 _0338_
*378 _0339_
*379 _0340_
*380 _0341_
*381 _0342_
*382 _0343_
*383 _0344_
*384 _0345_
*385 _0346_
*386 _0347_
*387 _0348_
*388 _0349_
*389 _0350_
*390 _0351_
*391 _0352_
*392 _0353_
*393 _0354_
*394 _0355_
*395 _0356_
*396 _0357_
*397 _0358_
*398 _0359_
*399 _0360_
*400 _0361_
*401 _0362_
*402 _0363_
*403 _0364_
*404 _0365_
*405 _0366_
*406 _0367_
*407 _0368_
*408 _0369_
*409 _0370_
*410 _0371_
*411 _0372_
*412 _0373_
*413 _0374_
*414 _0375_
*415 _0376_
*416 _0377_
*417 _0378_
*418 _0379_
*419 _0380_
*420 _0381_
*421 _0382_
*422 _0383_
*423 _0384_
*424 _0385_
*425 _0386_
*426 _0387_
*427 _0388_
*428 _0389_
*429 _0390_
*430 _0391_
*431 _0392_
*432 _0393_
*433 _0394_
*434 _0395_
*435 _0396_
*436 _0397_
*437 _0398_
*438 _0399_
*439 _0400_
*440 _0401_
*441 _0402_
*442 _0403_
*443 _0404_
*444 _0405_
*445 _0406_
*446 _0407_
*447 _0408_
*448 _0409_
*449 _0410_
*450 _0411_
*451 _0412_
*452 _0413_
*453 _0414_
*454 _0415_
*455 _0416_
*456 _0417_
*457 _0418_
*458 _0419_
*459 _0420_
*460 _0421_
*461 _0422_
*462 _0423_
*463 _0424_
*464 _0425_
*465 _0426_
*466 _0427_
*467 _0428_
*468 _0429_
*469 _0430_
*470 _0431_
*471 _0432_
*472 _0433_
*473 _0434_
*474 _0435_
*475 _0436_
*476 _0437_
*477 _0438_
*478 _0439_
*479 _0440_
*480 _0441_
*481 _0442_
*482 _0443_
*483 _0444_
*484 _0445_
*485 _0446_
*486 _0447_
*487 _0448_
*488 _0449_
*489 _0450_
*490 _0451_
*491 _0452_
*492 _0453_
*493 _0454_
*494 _0455_
*495 _0456_
*496 _0457_
*497 _0458_
*498 _0459_
*499 _0460_
*500 _0461_
*501 _0462_
*502 _0463_
*503 _0464_
*504 _0465_
*505 _0466_
*506 _0467_
*507 _0468_
*508 _0469_
*509 _0470_
*510 _0471_
*511 _0472_
*512 _0473_
*513 _0474_
*514 _0475_
*515 _0476_
*516 _0477_
*517 _0478_
*518 _0479_
*519 _0480_
*520 _0481_
*521 _0482_
*522 _0483_
*523 _0484_
*524 _0485_
*525 _0486_
*526 _0487_
*527 _0488_
*528 _0489_
*529 _0490_
*530 _0491_
*531 _0492_
*532 _0493_
*533 _0494_
*534 _0495_
*535 _0496_
*536 _0497_
*537 _0498_
*538 _0499_
*539 _0500_
*540 _0501_
*541 _0502_
*542 _0503_
*543 _0504_
*544 _0505_
*545 _0506_
*546 _0507_
*547 _0508_
*548 _0509_
*549 _0510_
*550 _0511_
*551 _0512_
*552 _0513_
*553 _0514_
*554 _0515_
*555 _0516_
*556 _0517_
*557 _0518_
*558 _0519_
*559 _0520_
*560 _0521_
*561 _0522_
*562 _0523_
*563 _0524_
*564 _0525_
*565 _0526_
*566 _0527_
*567 _0528_
*568 _0529_
*569 _0530_
*570 _0531_
*571 _0532_
*572 _0533_
*573 _0534_
*574 _0535_
*575 _0536_
*576 _0537_
*577 _0538_
*578 _0539_
*579 _0540_
*580 _0541_
*581 _0542_
*582 _0543_
*583 _0544_
*584 _0545_
*585 _0546_
*586 _0547_
*587 _0548_
*588 _0549_
*589 _0550_
*590 _0551_
*591 _0552_
*592 _0553_
*593 _0554_
*594 _0555_
*595 _0556_
*596 _0557_
*597 _0558_
*598 _0559_
*599 _0560_
*600 _0561_
*601 _0562_
*602 _0563_
*603 _0564_
*604 _0565_
*605 _0566_
*606 _0567_
*607 _0568_
*608 _0569_
*609 _0570_
*610 _0571_
*611 _0572_
*612 _0573_
*613 _0574_
*614 _0575_
*615 _0576_
*616 _0577_
*617 _0578_
*618 _0579_
*619 _0580_
*620 _0581_
*621 _0582_
*622 _0583_
*623 _0584_
*624 _0585_
*625 _0586_
*626 _0587_
*627 _0588_
*628 _0589_
*629 _0590_
*630 _0591_
*631 _0592_
*632 _0593_
*633 _0594_
*634 _0595_
*635 _0596_
*636 _0597_
*637 _0598_
*638 _0599_
*639 _0600_
*640 _0601_
*641 _0602_
*642 _0603_
*643 _0604_
*644 _0605_
*645 _0606_
*646 _0607_
*647 _0608_
*648 _0609_
*649 _0610_
*650 _0611_
*651 _0612_
*652 _0613_
*653 _0614_
*654 _0615_
*655 _0616_
*656 _0617_
*657 _0618_
*658 _0619_
*659 _0620_
*660 _0621_
*661 _0622_
*662 _0623_
*663 _0624_
*664 _0625_
*665 _0626_
*666 _0627_
*667 _0628_
*668 _0629_
*669 _0630_
*670 _0631_
*671 _0632_
*672 _0633_
*673 _0634_
*674 _0635_
*675 _0636_
*676 _0637_
*677 _0638_
*678 _0639_
*679 _0640_
*680 _0641_
*681 _0642_
*682 _0643_
*683 _0644_
*684 _0645_
*685 _0646_
*686 _0647_
*687 _0648_
*688 _0649_
*689 _0650_
*690 _0651_
*691 _0652_
*692 _0653_
*693 _0654_
*694 _0655_
*695 _0656_
*696 _0657_
*697 _0658_
*698 _0659_
*699 _0660_
*700 _0661_
*701 _0662_
*702 _0663_
*703 _0664_
*704 _0665_
*705 _0666_
*706 _0667_
*707 _0668_
*708 _0669_
*709 _0670_
*710 _0671_
*711 _0672_
*712 _0673_
*713 _0674_
*714 _0675_
*715 _0676_
*716 _0677_
*717 _0678_
*718 _0679_
*719 _0680_
*720 _0681_
*721 _0682_
*722 _0683_
*723 _0684_
*724 _0685_
*725 _0686_
*726 _0687_
*727 _0688_
*728 _0689_
*729 _0690_
*730 _0691_
*731 _0692_
*732 _0693_
*733 _0694_
*734 _0695_
*735 _0696_
*736 _0697_
*737 _0698_
*738 _0699_
*739 _0700_
*740 _0701_
*741 _0702_
*742 _0703_
*743 _0704_
*744 _0705_
*745 _0706_
*746 _0707_
*747 _0708_
*748 _0709_
*749 _0710_
*750 _0711_
*751 _0712_
*752 _0713_
*753 _0714_
*754 _0715_
*755 _0716_
*756 _0717_
*757 _0718_
*758 _0719_
*759 _0720_
*760 _0721_
*761 _0722_
*762 _0723_
*763 _0724_
*764 _0725_
*765 _0726_
*766 _0727_
*767 _0728_
*768 _0729_
*769 _0730_
*770 _0731_
*771 _0732_
*772 _0733_
*773 _0734_
*774 _0735_
*775 _0736_
*776 _0737_
*777 _0738_
*778 _0739_
*779 _0740_
*780 _0741_
*781 _0742_
*782 _0743_
*783 _0744_
*784 _0745_
*785 _0746_
*786 _0747_
*787 _0748_
*788 _0749_
*789 _0750_
*790 _0751_
*791 _0752_
*792 _0753_
*793 _0754_
*794 _0755_
*795 _0756_
*796 _0757_
*797 _0758_
*798 _0759_
*799 _0760_
*800 _0761_
*801 _0762_
*802 _0763_
*803 _0764_
*804 _0765_
*805 _0766_
*806 _0767_
*807 _0768_
*808 _0769_
*809 _0770_
*810 _0771_
*811 _0772_
*812 _0773_
*813 _0774_
*814 _0775_
*815 _0776_
*816 _0777_
*817 _0778_
*818 _0779_
*819 _0780_
*820 _0781_
*821 _0782_
*822 _0783_
*823 _0784_
*824 _0785_
*825 _0786_
*826 _0787_
*827 _0788_
*828 _0789_
*829 _0790_
*830 _0791_
*831 _0792_
*832 _0793_
*833 _0794_
*834 _0795_
*835 _0796_
*836 _0797_
*837 _0798_
*838 _0799_
*839 _0800_
*840 _0801_
*841 _0802_
*842 _0803_
*843 _0804_
*844 _0805_
*845 _0806_
*846 _0807_
*847 _0808_
*848 _0809_
*849 _0810_
*850 _0811_
*851 _0812_
*852 _0813_
*853 _0814_
*854 _0815_
*855 _0816_
*856 _0817_
*857 _0818_
*858 _0819_
*859 _0820_
*860 _0821_
*861 _0822_
*862 _0823_
*863 _0824_
*864 _0825_
*865 _0826_
*866 _0827_
*867 _0828_
*868 _0829_
*869 _0830_
*870 _0831_
*871 _0832_
*872 _0833_
*873 _0834_
*874 _0835_
*875 _0836_
*876 _0837_
*877 _0838_
*878 _0839_
*879 _0840_
*880 _0841_
*881 _0842_
*882 _0843_
*883 _0844_
*884 _0845_
*885 _0846_
*886 _0847_
*887 _0848_
*888 _0849_
*889 _0850_
*890 _0851_
*891 _0852_
*892 _0853_
*893 _0854_
*894 _0855_
*895 _0856_
*896 _0857_
*897 _0858_
*898 _0859_
*899 _0860_
*900 _0861_
*901 _0862_
*902 _0863_
*903 _0864_
*904 _0865_
*905 _0866_
*906 _0867_
*907 _0868_
*908 _0869_
*909 _0870_
*910 _0871_
*911 _0872_
*912 _0873_
*913 _0874_
*914 _0875_
*915 _0876_
*916 _0877_
*917 _0878_
*918 _0879_
*919 _0880_
*920 _0881_
*921 _0882_
*922 _0883_
*923 _0884_
*924 _0885_
*925 _0886_
*926 _0887_
*927 _0888_
*928 _0889_
*929 _0890_
*930 _0891_
*931 _0892_
*932 _0893_
*933 _0894_
*934 _0895_
*935 _0896_
*936 _0897_
*937 _0898_
*938 _0899_
*939 _0900_
*940 _0901_
*941 _0902_
*942 _0903_
*943 _0904_
*944 _0905_
*945 _0906_
*946 _0907_
*947 _0908_
*948 _0909_
*949 _0910_
*950 _0911_
*951 _0912_
*952 _0913_
*953 _0914_
*954 _0915_
*955 _0916_
*956 _0917_
*957 _0918_
*958 _0919_
*959 _0920_
*960 _0921_
*961 _0922_
*962 _0923_
*963 _0924_
*964 _0925_
*965 _0926_
*966 _0927_
*967 _0928_
*968 _0929_
*969 _0930_
*970 _0931_
*971 _0932_
*972 _0933_
*973 _0934_
*974 _0935_
*975 _0936_
*976 _0937_
*977 _0938_
*978 _0939_
*979 _0940_
*980 _0941_
*981 _0942_
*982 _0943_
*983 _0944_
*984 _0945_
*985 _0946_
*986 _0947_
*987 _0948_
*988 _0949_
*989 _0950_
*990 _0951_
*991 _0952_
*992 _0953_
*993 _0954_
*994 _0955_
*995 _0956_
*996 _0957_
*997 _0958_
*998 _0959_
*999 _0960_
*1000 _0961_
*1001 _0962_
*1002 _0963_
*1003 _0964_
*1004 _0965_
*1005 _0966_
*1006 _0967_
*1007 _0968_
*1008 _0969_
*1009 _0970_
*1010 _0971_
*1011 _0972_
*1012 _0973_
*1013 _0974_
*1014 _0975_
*1015 _0976_
*1016 _0977_
*1017 _0978_
*1018 _0979_
*1019 _0980_
*1020 _0981_
*1021 _0982_
*1022 _0983_
*1023 _0984_
*1024 _0985_
*1025 _0986_
*1026 _0987_
*1027 _0988_
*1028 _0989_
*1029 _0990_
*1030 _0991_
*1031 _0992_
*1032 _0993_
*1033 _0994_
*1034 _0995_
*1035 _0996_
*1036 _0997_
*1037 _0998_
*1038 _0999_
*1039 _1000_
*1040 _1001_
*1041 _1002_
*1042 _1003_
*1043 _1004_
*1044 _1005_
*1045 _1006_
*1046 _1007_
*1047 _1008_
*1048 _1009_
*1049 _1010_
*1050 _1011_
*1051 _1012_
*1052 _1013_
*1053 _1014_
*1054 _1015_
*1055 _1016_
*1056 _1017_
*1057 _1018_
*1058 _1019_
*1059 _1020_
*1060 _1021_
*1061 _1022_
*1062 _1023_
*1063 _1024_
*1064 _1025_
*1065 _1026_
*1066 _1027_
*1067 _1028_
*1068 _1029_
*1069 _1030_
*1070 _1031_
*1071 _1032_
*1072 _1033_
*1073 _1034_
*1074 _1035_
*1075 _1036_
*1076 _1037_
*1077 _1038_
*1078 _1039_
*1079 _1040_
*1080 _1041_
*1081 _1042_
*1082 _1043_
*1083 _1044_
*1084 _1045_
*1085 _1046_
*1086 _1047_
*1087 _1048_
*1088 _1049_
*1089 _1050_
*1090 _1051_
*1091 _1052_
*1092 _1053_
*1093 _1054_
*1094 _1055_
*1095 _1056_
*1096 _1057_
*1097 _1058_
*1098 _1059_
*1099 _1060_
*1100 _1061_
*1101 _1062_
*1102 _1063_
*1103 _1064_
*1104 _1065_
*1105 _1066_
*1106 _1067_
*1107 _1068_
*1108 _1069_
*1109 _1070_
*1110 _1071_
*1111 _1072_
*1112 _1073_
*1113 _1074_
*1114 _1075_
*1115 _1076_
*1116 _1077_
*1117 _1078_
*1118 _1079_
*1119 _1080_
*1120 _1081_
*1121 _1082_
*1122 _1083_
*1123 _1084_
*1124 _1085_
*1125 _1086_
*1126 _1087_
*1127 _1088_
*1128 _1089_
*1129 _1090_
*1130 _1091_
*1131 _1092_
*1132 _1093_
*1133 _1094_
*1134 _1095_
*1135 _1096_
*1136 _1097_
*1137 _1098_
*1138 _1099_
*1139 _1100_
*1140 _1101_
*1141 _1102_
*1142 _1103_
*1143 _1104_
*1144 _1105_
*1145 _1106_
*1146 _1107_
*1147 _1108_
*1148 _1109_
*1149 _1110_
*1150 _1111_
*1151 _1112_
*1152 _1113_
*1153 _1114_
*1154 _1115_
*1155 _1116_
*1156 _1117_
*1157 _1118_
*1158 _1119_
*1159 _1120_
*1160 _1121_
*1161 _1122_
*1162 _1123_
*1163 _1124_
*1164 _1125_
*1165 _1126_
*1166 _1127_
*1167 _1128_
*1168 _1129_
*1169 _1130_
*1170 _1131_
*1171 _1132_
*1172 _1133_
*1173 _1134_
*1174 _1135_
*1175 _1136_
*1176 _1137_
*1177 _1138_
*1178 _1139_
*1179 _1140_
*1180 _1141_
*1181 _1142_
*1182 _1143_
*1183 _1144_
*1184 _1145_
*1185 _1146_
*1186 _1147_
*1187 _1148_
*1188 _1149_
*1189 _1150_
*1190 _1151_
*1191 _1152_
*1192 _1153_
*1193 _1154_
*1194 _1155_
*1195 _1156_
*1196 _1157_
*1197 _1158_
*1198 _1159_
*1199 _1160_
*1200 _1161_
*1201 _1162_
*1202 _1163_
*1203 _1164_
*1204 _1165_
*1205 _1166_
*1206 _1167_
*1207 _1168_
*1208 _1169_
*1209 _1170_
*1210 _1171_
*1211 _1172_
*1212 _1173_
*1213 _1174_
*1214 _1175_
*1215 _1176_
*1216 _1177_
*1217 _1178_
*1218 _1179_
*1219 _1180_
*1220 _1181_
*1221 _1182_
*1222 _1183_
*1223 _1184_
*1224 _1185_
*1225 _1186_
*1226 _1187_
*1227 _1188_
*1228 _1189_
*1229 _1190_
*1230 _1191_
*1231 _1192_
*1232 _1193_
*1233 _1194_
*1234 _1195_
*1235 _1196_
*1236 _1197_
*1237 _1198_
*1238 _1199_
*1239 _1200_
*1240 _1201_
*1241 _1202_
*1242 _1203_
*1243 _1204_
*1244 _1205_
*1245 _1206_
*1246 _1207_
*1247 _1208_
*1248 _1209_
*1249 _1210_
*1250 _1211_
*1251 _1212_
*1252 _1213_
*1253 _1214_
*1254 _1215_
*1255 _1216_
*1256 _1217_
*1257 _1218_
*1258 _1219_
*1259 _1220_
*1260 _1221_
*1261 _1222_
*1262 _1223_
*1263 _1224_
*1264 _1225_
*1265 _1226_
*1266 _1227_
*1267 _1228_
*1268 _1229_
*1269 _1230_
*1270 _1231_
*1271 _1232_
*1272 _1233_
*1273 _1234_
*1274 _1235_
*1275 _1236_
*1276 _1237_
*1277 _1238_
*1278 _1239_
*1279 _1240_
*1280 _1241_
*1281 _1242_
*1282 _1243_
*1283 _1244_
*1284 _1245_
*1285 _1246_
*1286 _1247_
*1287 _1248_
*1288 _1249_
*1289 _1250_
*1290 _1251_
*1291 _1252_
*1292 _1253_
*1293 _1254_
*1294 _1255_
*1295 _1256_
*1296 _1257_
*1297 _1258_
*1298 _1259_
*1299 _1260_
*1300 _1261_
*1301 _1262_
*1302 _1263_
*1303 _1264_
*1304 _1265_
*1305 _1266_
*1306 _1267_
*1307 _1268_
*1308 _1269_
*1309 _1270_
*1310 _1271_
*1311 _1272_
*1312 _1273_
*1313 _1274_
*1314 _1275_
*1315 _1276_
*1316 _1277_
*1317 _1278_
*1318 _1279_
*1319 _1280_
*1320 _1281_
*1321 _1282_
*1322 _1283_
*1323 _1284_
*1324 _1285_
*1325 _1286_
*1326 _1287_
*1327 _1288_
*1328 _1289_
*1329 _1290_
*1330 _1291_
*1331 _1292_
*1332 _1293_
*1333 _1294_
*1334 _1295_
*1335 _1296_
*1336 _1297_
*1337 _1298_
*1338 _1299_
*1339 _1300_
*1340 _1301_
*1341 _1302_
*1342 _1303_
*1343 _1304_
*1344 _1305_
*1345 _1306_
*1346 _1307_
*1347 _1308_
*1348 _1309_
*1349 _1310_
*1350 _1311_
*1351 _1312_
*1352 _1313_
*1353 _1314_
*1354 _1315_
*1355 _1316_
*1356 _1317_
*1357 _1318_
*1358 _1319_
*1359 _1320_
*1360 _1321_
*1361 _1322_
*1362 _1323_
*1363 _1324_
*1364 _1325_
*1365 _1326_
*1366 _1327_
*1367 _1328_
*1368 _1329_
*1369 _1330_
*1370 _1331_
*1371 _1332_
*1372 _1333_
*1373 _1334_
*1374 _1335_
*1375 _1336_
*1376 _1337_
*1377 _1338_
*1378 _1339_
*1379 _1340_
*1380 _1341_
*1381 _1342_
*1382 _1343_
*1383 _1344_
*1384 _1345_
*1385 _1346_
*1386 _1347_
*1387 _1348_
*1388 _1349_
*1389 _1350_
*1390 _1351_
*1391 _1352_
*1392 _1353_
*1393 _1354_
*1394 _1355_
*1395 _1356_
*1396 _1357_
*1397 _1358_
*1398 _1359_
*1399 _1360_
*1400 _1361_
*1401 _1362_
*1402 _1363_
*1403 _1364_
*1404 _1365_
*1405 _1366_
*1406 _1367_
*1407 _1368_
*1408 _1369_
*1409 _1370_
*1410 _1371_
*1411 _1372_
*1412 _1373_
*1413 _1374_
*1414 _1375_
*1415 _1376_
*1416 _1377_
*1417 _1378_
*1418 _1379_
*1419 _1380_
*1420 _1381_
*1421 _1382_
*1422 _1383_
*1423 _1384_
*1424 _1385_
*1425 _1386_
*1426 _1387_
*1427 _1388_
*1428 _1389_
*1429 _1390_
*1430 _1391_
*1431 _1392_
*1432 _1393_
*1433 _1394_
*1434 _1395_
*1435 _1396_
*1436 _1397_
*1437 _1398_
*1438 _1399_
*1439 _1400_
*1440 _1401_
*1441 _1402_
*1442 _1403_
*1443 _1404_
*1444 _1405_
*1445 _1406_
*1446 _1407_
*1447 _1408_
*1448 _1409_
*1449 _1410_
*1450 _1411_
*1451 _1412_
*1452 _1413_
*1453 _1414_
*1454 _1415_
*1455 _1416_
*1456 _1417_
*1457 _1418_
*1458 _1419_
*1459 _1420_
*1460 _1421_
*1461 _1422_
*1462 _1423_
*1463 _1424_
*1464 _1425_
*1465 _1426_
*1466 _1427_
*1467 _1428_
*1468 _1429_
*1469 _1430_
*1470 _1431_
*1471 _1432_
*1472 _1433_
*1473 _1434_
*1474 _1435_
*1475 _1436_
*1476 _1437_
*1477 _1438_
*1478 _1439_
*1479 _1440_
*1480 _1441_
*1481 _1442_
*1482 _1443_
*1483 _1444_
*1484 _1445_
*1485 _1446_
*1486 _1447_
*1487 _1448_
*1488 _1449_
*1489 _1450_
*1490 _1451_
*1491 _1452_
*1492 _1453_
*1493 _1454_
*1494 _1455_
*1495 _1456_
*1496 _1457_
*1497 _1458_
*1498 _1459_
*1499 _1460_
*1500 _1461_
*1501 _1462_
*1502 _1463_
*1503 _1464_
*1504 _1465_
*1505 _1466_
*1506 _1467_
*1507 _1468_
*1508 _1469_
*1509 _1470_
*1510 _1471_
*1511 _1472_
*1512 _1473_
*1513 _1474_
*1514 _1475_
*1515 _1476_
*1516 _1477_
*1517 _1478_
*1518 _1479_
*1519 _1480_
*1520 _1481_
*1521 _1482_
*1522 _1483_
*1523 _1484_
*1524 _1485_
*1525 _1486_
*1526 _1487_
*1527 _1488_
*1528 _1489_
*1529 _1490_
*1530 _1491_
*1531 _1492_
*1532 _1493_
*1533 _1494_
*1534 _1495_
*1535 _1496_
*1536 _1497_
*1537 _1498_
*1538 _1499_
*1539 _1500_
*1540 _1501_
*1541 _1502_
*1542 _1503_
*1543 _1504_
*1544 _1505_
*1545 _1506_
*1546 _1507_
*1547 _1508_
*1548 _1509_
*1549 _1510_
*1550 _1511_
*1551 _1512_
*1552 _1513_
*1553 _1514_
*1554 _1515_
*1555 _1516_
*1556 _1517_
*1557 _1518_
*1558 _1519_
*1559 _1520_
*1560 _1521_
*1561 _1522_
*1562 _1523_
*1563 _1524_
*1564 _1525_
*1565 _1526_
*1566 _1527_
*1567 _1528_
*1568 _1529_
*1569 _1530_
*1570 _1531_
*1571 _1532_
*1572 _1533_
*1573 _1534_
*1574 _1535_
*1575 _1536_
*1576 _1537_
*1577 _1538_
*1578 _1539_
*1579 _1540_
*1580 _1541_
*1581 _1542_
*1582 _1543_
*1583 _1544_
*1584 _1545_
*1585 _1546_
*1586 _1547_
*1587 _1548_
*1588 _1549_
*1589 _1550_
*1590 _1551_
*1591 _1552_
*1592 _1553_
*1593 _1554_
*1594 _1555_
*1595 _1556_
*1596 _1557_
*1597 _1558_
*1598 _1559_
*1599 _1560_
*1600 _1561_
*1601 _1562_
*1602 _1563_
*1603 _1564_
*1604 _1565_
*1605 _1566_
*1606 _1567_
*1607 _1568_
*1608 _1569_
*1609 _1570_
*1610 _1571_
*1611 _1572_
*1612 _1573_
*1613 _1574_
*1614 _1575_
*1615 _1576_
*1616 _1577_
*1617 _1578_
*1618 _1579_
*1619 _1580_
*1620 _1581_
*1621 _1582_
*1622 _1583_
*1623 _1584_
*1624 _1585_
*1625 _1586_
*1626 _1587_
*1627 _1588_
*1628 _1589_
*1629 _1590_
*1630 _1591_
*1631 _1592_
*1632 _1593_
*1633 _1594_
*1634 _1595_
*1635 _1596_
*1636 _1597_
*1637 _1598_
*1638 _1599_
*1639 _1600_
*1640 _1601_
*1641 _1602_
*1642 _1603_
*1643 _1604_
*1644 _1605_
*1645 _1606_
*1646 _1607_
*1647 _1608_
*1648 _1609_
*1649 _1610_
*1650 _1611_
*1651 _1612_
*1652 _1613_
*1653 _1614_
*1654 _1615_
*1655 _1616_
*1656 _1617_
*1657 _1618_
*1658 _1619_
*1659 _1620_
*1660 _1621_
*1661 _1622_
*1662 _1623_
*1663 _1624_
*1664 _1625_
*1665 _1626_
*1666 _1627_
*1667 _1628_
*1668 _1629_
*1669 _1630_
*1670 _1631_
*1671 _1632_
*1672 _1633_
*1673 _1634_
*1674 _1635_
*1675 _1636_
*1676 _1637_
*1677 _1638_
*1678 _1639_
*1679 _1640_
*1680 _1641_
*1681 _1642_
*1682 _1643_
*1683 _1644_
*1684 _1645_
*1685 _1646_
*1686 _1647_
*1687 _1648_
*1688 _1649_
*1689 _1650_
*1690 _1651_
*1691 _1652_
*1692 _1653_
*1693 _1654_
*1694 _1655_
*1695 _1656_
*1696 _1657_
*1697 _1658_
*1698 _1659_
*1699 _1660_
*1700 _1661_
*1701 _1662_
*1702 _1663_
*1703 _1664_
*1704 _1665_
*1705 _1666_
*1706 _1667_
*1707 _1668_
*1708 _1669_
*1709 _1670_
*1710 _1671_
*1711 _1672_
*1712 _1673_
*1713 _1674_
*1714 _1675_
*1715 _1676_
*1716 _1677_
*1717 _1678_
*1718 _1679_
*1719 _1680_
*1720 _1681_
*1721 _1682_
*1722 _1683_
*1723 _1684_
*1724 _1685_
*1725 _1686_
*1726 _1687_
*1727 _1688_
*1728 _1689_
*1729 _1690_
*1730 _1691_
*1731 _1692_
*1732 _1693_
*1733 _1694_
*1734 _1695_
*1735 _1696_
*1736 _1697_
*1737 _1698_
*1738 _1699_
*1739 _1700_
*1740 _1701_
*1741 _1702_
*1742 _1703_
*1743 _1704_
*1744 _1705_
*1745 _1706_
*1746 _1707_
*1747 _1708_
*1748 _1709_
*1749 _1710_
*1750 _1711_
*1751 _1712_
*1752 _1713_
*1753 _1714_
*1754 _1715_
*1755 _1716_
*1756 _1717_
*1757 _1718_
*1758 _1719_
*1759 _1720_
*1760 _1721_
*1761 _1722_
*1762 _1723_
*1763 _1724_
*1764 _1725_
*1765 _1726_
*1766 _1727_
*1767 _1728_
*1768 _1729_
*1769 _1730_
*1770 _1731_
*1771 _1732_
*1772 _1733_
*1773 _1734_
*1774 _1735_
*1775 _1736_
*1776 _1737_
*1777 _1738_
*1778 _1739_
*1779 _1740_
*1780 _1741_
*1781 _1742_
*1782 _1743_
*1783 _1744_
*1784 _1745_
*1785 _1746_
*1786 _1747_
*1787 _1748_
*1788 _1749_
*1789 _1750_
*1790 _1751_
*1791 _1752_
*1792 _1753_
*1793 _1754_
*1794 _1755_
*1795 _1756_
*1796 _1757_
*1797 _1758_
*1798 _1759_
*1799 _1760_
*1800 _1761_
*1801 _1762_
*1802 _1763_
*1803 _1764_
*1804 _1765_
*1805 _1766_
*1806 _1767_
*1807 _1768_
*1808 _1769_
*1809 _1770_
*1810 _1771_
*1811 _1772_
*1812 _1773_
*1813 _1774_
*1814 _1775_
*1815 _1776_
*1816 _1777_
*1817 _1778_
*1818 _1779_
*1819 _1780_
*1820 _1781_
*1821 _1782_
*1822 _1783_
*1823 _1784_
*1824 _1785_
*1825 _1786_
*1826 _1787_
*1827 _1788_
*1828 _1789_
*1829 _1790_
*1830 _1791_
*1831 _1792_
*1832 _1793_
*1833 _1794_
*1834 _1795_
*1835 _1796_
*1836 _1797_
*1837 _1798_
*1838 _1799_
*1839 _1800_
*1840 _1801_
*1841 _1802_
*1842 _1803_
*1843 _1804_
*1844 _1805_
*1845 _1806_
*1846 _1807_
*1847 _1808_
*1848 _1809_
*1849 _1810_
*1850 _1811_
*1851 _1812_
*1852 _1813_
*1853 _1814_
*1854 _1815_
*1855 _1816_
*1856 _1817_
*1857 _1818_
*1858 _1819_
*1859 _1820_
*1860 _1821_
*1861 _1822_
*1862 _1823_
*1863 _1824_
*1864 _1825_
*1865 _1826_
*1866 _1827_
*1867 _1828_
*1868 _1829_
*1869 _1830_
*1870 _1831_
*1871 _1832_
*1872 _1833_
*1873 _1834_
*1874 _1835_
*1875 _1836_
*1876 _1837_
*1877 _1838_
*1878 _1839_
*1879 _1840_
*1880 _1841_
*1881 _1842_
*1882 _1843_
*1883 _1844_
*1884 _1845_
*1885 _1846_
*1886 _1847_
*1887 _1848_
*1888 _1849_
*1889 _1850_
*1890 _1851_
*1891 _1852_
*1892 _1853_
*1893 _1854_
*1894 _1855_
*1895 _1856_
*1896 _1857_
*1897 _1858_
*1898 _1859_
*1899 _1860_
*1900 _1861_
*1901 _1862_
*1902 _1863_
*1903 _1864_
*1904 _1865_
*1905 _1866_
*1906 _1867_
*1907 _1868_
*1908 _1869_
*1909 _1870_
*1910 _1871_
*1911 _1872_
*1912 _1873_
*1913 _1874_
*1914 _1875_
*1915 _1876_
*1916 _1877_
*1917 _1878_
*1918 _1879_
*1919 _1880_
*1920 _1881_
*1921 _1882_
*1922 _1883_
*1923 _1884_
*1924 _1885_
*1925 _1886_
*1926 _1887_
*1927 _1888_
*1928 _1889_
*1929 _1890_
*1930 _1891_
*1931 _1892_
*1932 _1893_
*1933 _1894_
*1934 _1895_
*1935 _1896_
*1936 _1897_
*1937 _1898_
*1938 _1899_
*1939 _1900_
*1940 _1901_
*1941 _1902_
*1942 _1903_
*1943 _1904_
*1944 _1905_
*1945 _1906_
*1946 _1907_
*1947 _1908_
*1948 _1909_
*1949 _1910_
*1950 _1911_
*1951 _1912_
*1952 _1913_
*1953 _1914_
*1954 _1915_
*1955 _1916_
*1956 _1917_
*1957 _1918_
*1958 _1919_
*1959 _1920_
*1960 _1921_
*1961 _1922_
*1962 _1923_
*1963 _1924_
*1964 _1925_
*1965 _1926_
*1966 _1927_
*1967 _1928_
*1968 _1929_
*1969 _1930_
*1970 _1931_
*1971 _1932_
*1972 _1933_
*1973 _1934_
*1974 _1935_
*1975 _1936_
*1976 _1937_
*1977 _1938_
*1978 _1939_
*1979 _1940_
*1980 _1941_
*1981 _1942_
*1982 _1943_
*1983 _1944_
*1984 _1945_
*1985 _1946_
*1986 _1947_
*1987 _1948_
*1988 _1949_
*1989 _1950_
*1990 _1951_
*1991 _1952_
*1992 _1953_
*1993 _1954_
*1994 _1955_
*1995 _1956_
*1996 _1957_
*1997 _1958_
*1998 _1959_
*1999 _1960_
*2000 _1961_
*2001 _1962_
*2002 _1963_
*2003 _1964_
*2004 _1965_
*2005 _1966_
*2006 _1967_
*2007 _1968_
*2008 _1969_
*2009 _1970_
*2010 _1971_
*2011 _1972_
*2012 _1973_
*2013 _1974_
*2014 _1975_
*2015 _1976_
*2016 _1977_
*2017 _1978_
*2018 _1979_
*2019 _1980_
*2020 _1981_
*2021 _1982_
*2022 _1983_
*2023 _1984_
*2024 _1985_
*2025 _1986_
*2026 _1987_
*2027 _1988_
*2028 _1989_
*2029 _1990_
*2030 _1991_
*2031 _1992_
*2032 _1993_
*2033 _1994_
*2034 _1995_
*2035 _1996_
*2036 _1997_
*2037 _1998_
*2038 _1999_
*2039 _2000_
*2040 _2001_
*2041 _2002_
*2042 _2003_
*2043 _2004_
*2044 _2005_
*2045 _2006_
*2046 _2007_
*2047 _2008_
*2048 _2009_
*2049 _2010_
*2050 _2011_
*2051 _2012_
*2052 _2013_
*2053 _2014_
*2054 _2015_
*2055 _2016_
*2056 _2017_
*2057 _2018_
*2058 _2019_
*2059 _2020_
*2060 _2021_
*2061 _2022_
*2062 _2023_
*2063 _2024_
*2064 _2025_
*2065 _2026_
*2066 _2027_
*2067 _2028_
*2068 _2029_
*2069 _2030_
*2070 _2031_
*2071 _2032_
*2072 _2033_
*2073 _2034_
*2074 _2035_
*2075 _2036_
*2076 _2037_
*2077 _2038_
*2078 _2039_
*2079 _2040_
*2080 _2041_
*2081 _2042_
*2082 _2043_
*2083 _2044_
*2084 _2045_
*2085 _2046_
*2086 _2047_
*2087 _2048_
*2088 _2049_
*2089 _2050_
*2090 _2051_
*2091 _2052_
*2092 _2053_
*2093 _2054_
*2094 _2055_
*2095 _2056_
*2096 _2057_
*2097 _2058_
*2098 _2059_
*2099 _2060_
*2100 _2061_
*2101 _2062_
*2102 _2063_
*2103 _2064_
*2104 _2065_
*2105 _2066_
*2106 _2067_
*2107 _2068_
*2108 _2069_
*2109 _2070_
*2110 _2071_
*2111 _2072_
*2112 _2073_
*2113 _2074_
*2114 _2075_
*2115 _2076_
*2116 _2077_
*2117 _2078_
*2118 _2079_
*2119 _2080_
*2120 _2081_
*2121 _2082_
*2122 _2083_
*2123 _2084_
*2124 _2085_
*2125 _2086_
*2126 _2087_
*2127 _2088_
*2128 _2089_
*2129 _2090_
*2130 _2091_
*2131 _2092_
*2132 _2093_
*2133 _2094_
*2134 _2095_
*2135 _2096_
*2136 _2097_
*2137 _2098_
*2138 _2099_
*2139 _2100_
*2140 _2101_
*2141 _2102_
*2142 _2103_
*2143 clknet_0_wb_clk_i
*2144 clknet_3_0__leaf_wb_clk_i
*2145 clknet_3_1__leaf_wb_clk_i
*2146 clknet_3_2__leaf_wb_clk_i
*2147 clknet_3_3__leaf_wb_clk_i
*2148 clknet_3_4__leaf_wb_clk_i
*2149 clknet_3_5__leaf_wb_clk_i
*2150 clknet_3_6__leaf_wb_clk_i
*2151 clknet_3_7__leaf_wb_clk_i
*2152 clknet_leaf_0_wb_clk_i
*2153 clknet_leaf_10_wb_clk_i
*2154 clknet_leaf_11_wb_clk_i
*2155 clknet_leaf_12_wb_clk_i
*2156 clknet_leaf_13_wb_clk_i
*2157 clknet_leaf_14_wb_clk_i
*2158 clknet_leaf_15_wb_clk_i
*2159 clknet_leaf_16_wb_clk_i
*2160 clknet_leaf_17_wb_clk_i
*2161 clknet_leaf_18_wb_clk_i
*2162 clknet_leaf_19_wb_clk_i
*2163 clknet_leaf_1_wb_clk_i
*2164 clknet_leaf_20_wb_clk_i
*2165 clknet_leaf_21_wb_clk_i
*2166 clknet_leaf_22_wb_clk_i
*2167 clknet_leaf_23_wb_clk_i
*2168 clknet_leaf_24_wb_clk_i
*2169 clknet_leaf_25_wb_clk_i
*2170 clknet_leaf_26_wb_clk_i
*2171 clknet_leaf_27_wb_clk_i
*2172 clknet_leaf_28_wb_clk_i
*2173 clknet_leaf_29_wb_clk_i
*2174 clknet_leaf_2_wb_clk_i
*2175 clknet_leaf_30_wb_clk_i
*2176 clknet_leaf_31_wb_clk_i
*2177 clknet_leaf_32_wb_clk_i
*2178 clknet_leaf_33_wb_clk_i
*2179 clknet_leaf_34_wb_clk_i
*2180 clknet_leaf_35_wb_clk_i
*2181 clknet_leaf_36_wb_clk_i
*2182 clknet_leaf_37_wb_clk_i
*2183 clknet_leaf_38_wb_clk_i
*2184 clknet_leaf_39_wb_clk_i
*2185 clknet_leaf_3_wb_clk_i
*2186 clknet_leaf_40_wb_clk_i
*2187 clknet_leaf_41_wb_clk_i
*2188 clknet_leaf_42_wb_clk_i
*2189 clknet_leaf_43_wb_clk_i
*2190 clknet_leaf_45_wb_clk_i
*2191 clknet_leaf_46_wb_clk_i
*2192 clknet_leaf_47_wb_clk_i
*2193 clknet_leaf_48_wb_clk_i
*2194 clknet_leaf_4_wb_clk_i
*2195 clknet_leaf_50_wb_clk_i
*2196 clknet_leaf_51_wb_clk_i
*2197 clknet_leaf_53_wb_clk_i
*2198 clknet_leaf_54_wb_clk_i
*2199 clknet_leaf_55_wb_clk_i
*2200 clknet_leaf_56_wb_clk_i
*2201 clknet_leaf_57_wb_clk_i
*2202 clknet_leaf_59_wb_clk_i
*2203 clknet_leaf_5_wb_clk_i
*2204 clknet_leaf_60_wb_clk_i
*2205 clknet_leaf_61_wb_clk_i
*2206 clknet_leaf_62_wb_clk_i
*2207 clknet_leaf_63_wb_clk_i
*2208 clknet_leaf_64_wb_clk_i
*2209 clknet_leaf_66_wb_clk_i
*2210 clknet_leaf_67_wb_clk_i
*2211 clknet_leaf_69_wb_clk_i
*2212 clknet_leaf_6_wb_clk_i
*2213 clknet_leaf_70_wb_clk_i
*2214 clknet_leaf_71_wb_clk_i
*2215 clknet_leaf_72_wb_clk_i
*2216 clknet_leaf_73_wb_clk_i
*2217 clknet_leaf_74_wb_clk_i
*2218 clknet_leaf_76_wb_clk_i
*2219 clknet_leaf_77_wb_clk_i
*2220 clknet_leaf_78_wb_clk_i
*2221 clknet_leaf_7_wb_clk_i
*2222 clknet_leaf_81_wb_clk_i
*2223 clknet_leaf_82_wb_clk_i
*2224 clknet_leaf_83_wb_clk_i
*2225 clknet_leaf_84_wb_clk_i
*2226 clknet_leaf_85_wb_clk_i
*2227 clknet_leaf_86_wb_clk_i
*2228 clknet_leaf_87_wb_clk_i
*2229 clknet_leaf_88_wb_clk_i
*2230 clknet_leaf_89_wb_clk_i
*2231 clknet_leaf_8_wb_clk_i
*2232 clknet_leaf_90_wb_clk_i
*2233 clknet_leaf_91_wb_clk_i
*2234 clknet_leaf_92_wb_clk_i
*2235 clknet_leaf_93_wb_clk_i
*2236 clknet_leaf_9_wb_clk_i
*2237 last_tmr0_clk
*2238 last_tmr1_clk
*2239 net1
*2240 net10
*2241 net11
*2242 net12
*2243 net13