*SPEF "ieee 1481-1999"
*DESIGN "user_project_wrapper"
*DATE "11:11:11 Fri 11 11, 1111"
*VENDOR "OpenRCX"
*PROGRAM "Parallel Extraction"
*VERSION "1.0"
*DESIGN_FLOW "NAME_SCOPE LOCAL" "PIN_CAP NONE"
*DIVIDER /
*DELIMITER :
*BUS_DELIMITER []
*T_UNIT 1 NS
*C_UNIT 1 PF
*R_UNIT 1 OHM
*L_UNIT 1 HENRY

*NAME_MAP
*1 io_in[0]
*2 io_in[10]
*3 io_in[11]
*4 io_in[12]
*5 io_in[13]
*6 io_in[14]
*7 io_in[15]
*8 io_in[16]
*9 io_in[17]
*10 io_in[18]
*11 io_in[19]
*12 io_in[1]
*13 io_in[20]
*14 io_in[21]
*15 io_in[22]
*16 io_in[23]
*17 io_in[24]
*18 io_in[25]
*19 io_in[26]
*20 io_in[27]
*21 io_in[28]
*22 io_in[29]
*23 io_in[2]
*24 io_in[30]
*25 io_in[31]
*26 io_in[32]
*27 io_in[33]
*28 io_in[34]
*29 io_in[35]
*30 io_in[36]
*31 io_in[37]
*32 io_in[3]
*33 io_in[4]
*34 io_in[5]
*35 io_in[6]
*36 io_in[7]
*37 io_in[8]
*38 io_in[9]
*39 io_oeb[0]
*40 io_oeb[10]
*41 io_oeb[11]
*42 io_oeb[12]
*43 io_oeb[13]
*44 io_oeb[14]
*45 io_oeb[15]
*46 io_oeb[16]
*47 io_oeb[17]
*48 io_oeb[18]
*49 io_oeb[19]
*50 io_oeb[1]
*51 io_oeb[20]
*52 io_oeb[21]
*53 io_oeb[22]
*54 io_oeb[23]
*55 io_oeb[24]
*56 io_oeb[25]
*57 io_oeb[26]
*58 io_oeb[27]
*59 io_oeb[28]
*60 io_oeb[29]
*61 io_oeb[2]
*62 io_oeb[30]
*63 io_oeb[31]
*64 io_oeb[32]
*65 io_oeb[33]
*66 io_oeb[34]
*67 io_oeb[35]
*68 io_oeb[36]
*69 io_oeb[37]
*70 io_oeb[3]
*71 io_oeb[4]
*72 io_oeb[5]
*73 io_oeb[6]
*74 io_oeb[7]
*75 io_oeb[8]
*76 io_oeb[9]
*77 io_out[0]
*78 io_out[10]
*79 io_out[11]
*80 io_out[12]
*81 io_out[13]
*82 io_out[14]
*83 io_out[15]
*84 io_out[16]
*85 io_out[17]
*86 io_out[18]
*87 io_out[19]
*88 io_out[1]
*89 io_out[20]
*90 io_out[21]
*91 io_out[22]
*92 io_out[23]
*93 io_out[24]
*94 io_out[25]
*95 io_out[26]
*96 io_out[27]
*97 io_out[28]
*98 io_out[29]
*99 io_out[2]
*100 io_out[30]
*101 io_out[31]
*102 io_out[32]
*103 io_out[33]
*104 io_out[34]
*105 io_out[35]
*106 io_out[36]
*107 io_out[37]
*108 io_out[3]
*109 io_out[4]
*110 io_out[5]
*111 io_out[6]
*112 io_out[7]
*113 io_out[8]
*114 io_out[9]
*115 la_data_in[0]
*116 la_data_in[10]
*117 la_data_in[11]
*118 la_data_in[12]
*119 la_data_in[13]
*120 la_data_in[14]
*121 la_data_in[15]
*122 la_data_in[16]
*123 la_data_in[17]
*124 la_data_in[18]
*125 la_data_in[19]
*126 la_data_in[1]
*127 la_data_in[20]
*128 la_data_in[21]
*129 la_data_in[22]
*130 la_data_in[23]
*131 la_data_in[24]
*132 la_data_in[25]
*133 la_data_in[26]
*134 la_data_in[27]
*135 la_data_in[28]
*136 la_data_in[29]
*137 la_data_in[2]
*138 la_data_in[30]
*139 la_data_in[31]
*140 la_data_in[32]
*141 la_data_in[33]
*142 la_data_in[34]
*143 la_data_in[35]
*144 la_data_in[36]
*145 la_data_in[37]
*146 la_data_in[38]
*147 la_data_in[39]
*148 la_data_in[3]
*149 la_data_in[40]
*150 la_data_in[41]
*151 la_data_in[42]
*152 la_data_in[43]
*153 la_data_in[44]
*154 la_data_in[45]
*155 la_data_in[46]
*156 la_data_in[47]
*157 la_data_in[48]
*158 la_data_in[49]
*159 la_data_in[4]
*160 la_data_in[50]
*161 la_data_in[51]
*162 la_data_in[52]
*163 la_data_in[53]
*164 la_data_in[54]
*165 la_data_in[55]
*166 la_data_in[56]
*167 la_data_in[57]
*168 la_data_in[58]
*169 la_data_in[59]
*170 la_data_in[5]
*171 la_data_in[60]
*172 la_data_in[61]
*173 la_data_in[62]
*174 la_data_in[63]
*175 la_data_in[6]
*176 la_data_in[7]
*177 la_data_in[8]
*178 la_data_in[9]
*179 la_data_out[0]
*180 la_data_out[10]
*181 la_data_out[11]
*182 la_data_out[12]
*183 la_data_out[13]
*184 la_data_out[14]
*185 la_data_out[15]
*186 la_data_out[16]
*187 la_data_out[17]
*188 la_data_out[18]
*189 la_data_out[19]
*190 la_data_out[1]
*191 la_data_out[20]
*192 la_data_out[21]
*193 la_data_out[22]
*194 la_data_out[23]
*195 la_data_out[24]
*196 la_data_out[25]
*197 la_data_out[26]
*198 la_data_out[27]
*199 la_data_out[28]
*200 la_data_out[29]
*201 la_data_out[2]
*202 la_data_out[30]
*203 la_data_out[31]
*204 la_data_out[32]
*205 la_data_out[33]
*206 la_data_out[34]
*207 la_data_out[35]
*208 la_data_out[36]
*209 la_data_out[37]
*210 la_data_out[38]
*211 la_data_out[39]
*212 la_data_out[3]
*213 la_data_out[40]
*214 la_data_out[41]
*215 la_data_out[42]
*216 la_data_out[43]
*217 la_data_out[44]
*218 la_data_out[45]
*219 la_data_out[46]
*220 la_data_out[47]
*221 la_data_out[48]
*222 la_data_out[49]
*223 la_data_out[4]
*224 la_data_out[50]
*225 la_data_out[51]
*226 la_data_out[52]
*227 la_data_out[53]
*228 la_data_out[54]
*229 la_data_out[55]
*230 la_data_out[56]
*231 la_data_out[57]
*232 la_data_out[58]
*233 la_data_out[59]
*234 la_data_out[5]
*235 la_data_out[60]
*236 la_data_out[61]
*237 la_data_out[62]
*238 la_data_out[63]
*239 la_data_out[6]
*240 la_data_out[7]
*241 la_data_out[8]
*242 la_data_out[9]
*243 la_oenb[0]
*244 la_oenb[10]
*245 la_oenb[11]
*246 la_oenb[12]
*247 la_oenb[13]
*248 la_oenb[14]
*249 la_oenb[15]
*250 la_oenb[16]
*251 la_oenb[17]
*252 la_oenb[18]
*253 la_oenb[19]
*254 la_oenb[1]
*255 la_oenb[20]
*256 la_oenb[21]
*257 la_oenb[22]
*258 la_oenb[23]
*259 la_oenb[24]
*260 la_oenb[25]
*261 la_oenb[26]
*262 la_oenb[27]
*263 la_oenb[28]
*264 la_oenb[29]
*265 la_oenb[2]
*266 la_oenb[30]
*267 la_oenb[31]
*268 la_oenb[32]
*269 la_oenb[33]
*270 la_oenb[34]
*271 la_oenb[35]
*272 la_oenb[36]
*273 la_oenb[37]
*274 la_oenb[38]
*275 la_oenb[39]
*276 la_oenb[3]
*277 la_oenb[40]
*278 la_oenb[41]
*279 la_oenb[42]
*280 la_oenb[43]
*281 la_oenb[44]
*282 la_oenb[45]
*283 la_oenb[46]
*284 la_oenb[47]
*285 la_oenb[48]
*286 la_oenb[49]
*287 la_oenb[4]
*288 la_oenb[50]
*289 la_oenb[51]
*290 la_oenb[52]
*291 la_oenb[53]
*292 la_oenb[54]
*293 la_oenb[55]
*294 la_oenb[56]
*295 la_oenb[57]
*296 la_oenb[58]
*297 la_oenb[59]
*298 la_oenb[5]
*299 la_oenb[60]
*300 la_oenb[61]
*301 la_oenb[62]
*302 la_oenb[63]
*303 la_oenb[6]
*304 la_oenb[7]
*305 la_oenb[8]
*306 la_oenb[9]
*307 user_clock2
*308 user_irq[0]
*309 user_irq[1]
*310 user_irq[2]
*313 wb_clk_i
*314 wb_rst_i
*315 wbs_ack_o
*316 wbs_adr_i[0]
*317 wbs_adr_i[10]
*318 wbs_adr_i[11]
*319 wbs_adr_i[12]
*320 wbs_adr_i[13]
*321 wbs_adr_i[14]
*322 wbs_adr_i[15]
*323 wbs_adr_i[16]
*324 wbs_adr_i[17]
*325 wbs_adr_i[18]
*326 wbs_adr_i[19]
*327 wbs_adr_i[1]
*328 wbs_adr_i[20]
*329 wbs_adr_i[21]
*330 wbs_adr_i[22]
*331 wbs_adr_i[23]
*332 wbs_adr_i[24]
*333 wbs_adr_i[25]
*334 wbs_adr_i[26]
*335 wbs_adr_i[27]
*336 wbs_adr_i[28]
*337 wbs_adr_i[29]
*338 wbs_adr_i[2]
*339 wbs_adr_i[30]
*340 wbs_adr_i[31]
*341 wbs_adr_i[3]
*342 wbs_adr_i[4]
*343 wbs_adr_i[5]
*344 wbs_adr_i[6]
*345 wbs_adr_i[7]
*346 wbs_adr_i[8]
*347 wbs_adr_i[9]
*348 wbs_cyc_i
*349 wbs_dat_i[0]
*350 wbs_dat_i[10]
*351 wbs_dat_i[11]
*352 wbs_dat_i[12]
*353 wbs_dat_i[13]
*354 wbs_dat_i[14]
*355 wbs_dat_i[15]
*356 wbs_dat_i[16]
*357 wbs_dat_i[17]
*358 wbs_dat_i[18]
*359 wbs_dat_i[19]
*360 wbs_dat_i[1]
*361 wbs_dat_i[20]
*362 wbs_dat_i[21]
*363 wbs_dat_i[22]
*364 wbs_dat_i[23]
*365 wbs_dat_i[24]
*366 wbs_dat_i[25]
*367 wbs_dat_i[26]
*368 wbs_dat_i[27]
*369 wbs_dat_i[28]
*370 wbs_dat_i[29]
*371 wbs_dat_i[2]
*372 wbs_dat_i[30]
*373 wbs_dat_i[31]
*374 wbs_dat_i[3]
*375 wbs_dat_i[4]
*376 wbs_dat_i[5]
*377 wbs_dat_i[6]
*378 wbs_dat_i[7]
*379 wbs_dat_i[8]
*380 wbs_dat_i[9]
*381 wbs_dat_o[0]
*382 wbs_dat_o[10]
*383 wbs_dat_o[11]
*384 wbs_dat_o[12]
*385 wbs_dat_o[13]
*386 wbs_dat_o[14]
*387 wbs_dat_o[15]
*388 wbs_dat_o[16]
*389 wbs_dat_o[17]
*390 wbs_dat_o[18]
*391 wbs_dat_o[19]
*392 wbs_dat_o[1]
*393 wbs_dat_o[20]
*394 wbs_dat_o[21]
*395 wbs_dat_o[22]
*396 wbs_dat_o[23]
*397 wbs_dat_o[24]
*398 wbs_dat_o[25]
*399 wbs_dat_o[26]
*400 wbs_dat_o[27]
*401 wbs_dat_o[28]
*402 wbs_dat_o[29]
*403 wbs_dat_o[2]
*404 wbs_dat_o[30]
*405 wbs_dat_o[31]
*406 wbs_dat_o[3]
*407 wbs_dat_o[4]
*408 wbs_dat_o[5]
*409 wbs_dat_o[6]
*410 wbs_dat_o[7]
*411 wbs_dat_o[8]
*412 wbs_dat_o[9]
*413 wbs_sel_i[0]
*414 wbs_sel_i[1]
*415 wbs_sel_i[2]
*416 wbs_sel_i[3]
*417 wbs_stb_i
*418 wbs_we_i
*419 wrapped_as2650

*PORTS
io_in[0] I
io_in[10] I
io_in[11] I
io_in[12] I
io_in[13] I
io_in[14] I
io_in[15] I
io_in[16] I
io_in[17] I
io_in[18] I
io_in[19] I
io_in[1] I
io_in[20] I
io_in[21] I
io_in[22] I
io_in[23] I
io_in[24] I
io_in[25] I
io_in[26] I
io_in[27] I
io_in[28] I
io_in[29] I
io_in[2] I
io_in[30] I
io_in[31] I
io_in[32] I
io_in[33] I
io_in[34] I
io_in[35] I
io_in[36] I
io_in[37] I
io_in[3] I
io_in[4] I
io_in[5] I
io_in[6] I
io_in[7] I
io_in[8] I
io_in[9] I
io_oeb[0] O
io_oeb[10] O
io_oeb[11] O
io_oeb[12] O
io_oeb[13] O
io_oeb[14] O
io_oeb[15] O
io_oeb[16] O
io_oeb[17] O
io_oeb[18] O
io_oeb[19] O
io_oeb[1] O
io_oeb[20] O
io_oeb[21] O
io_oeb[22] O
io_oeb[23] O
io_oeb[24] O
io_oeb[25] O
io_oeb[26] O
io_oeb[27] O
io_oeb[28] O
io_oeb[29] O
io_oeb[2] O
io_oeb[30] O
io_oeb[31] O
io_oeb[32] O
io_oeb[33] O
io_oeb[34] O
io_oeb[35] O
io_oeb[36] O
io_oeb[37] O
io_oeb[3] O
io_oeb[4] O
io_oeb[5] O
io_oeb[6] O
io_oeb[7] O
io_oeb[8] O
io_oeb[9] O
io_out[0] O
io_out[10] O
io_out[11] O
io_out[12] O
io_out[13] O
io_out[14] O
io_out[15] O
io_out[16] O
io_out[17] O
io_out[18] O
io_out[19] O
io_out[1] O
io_out[20] O
io_out[21] O
io_out[22] O
io_out[23] O
io_out[24] O
io_out[25] O
io_out[26] O
io_out[27] O
io_out[28] O
io_out[29] O
io_out[2] O
io_out[30] O
io_out[31] O
io_out[32] O
io_out[33] O
io_out[34] O
io_out[35] O
io_out[36] O
io_out[37] O
io_out[3] O
io_out[4] O
io_out[5] O
io_out[6] O
io_out[7] O
io_out[8] O
io_out[9] O
la_data_in[0] I
la_data_in[10] I
la_data_in[11] I
la_data_in[12] I
la_data_in[13] I
la_data_in[14] I
la_data_in[15] I
la_data_in[16] I
la_data_in[17] I
la_data_in[18] I
la_data_in[19] I
la_data_in[1] I
la_data_in[20] I
la_data_in[21] I
la_data_in[22] I
la_data_in[23] I
la_data_in[24] I
la_data_in[25] I
la_data_in[26] I
la_data_in[27] I
la_data_in[28] I
la_data_in[29] I
la_data_in[2] I
la_data_in[30] I
la_data_in[31] I
la_data_in[32] I
la_data_in[33] I
la_data_in[34] I
la_data_in[35] I
la_data_in[36] I
la_data_in[37] I
la_data_in[38] I
la_data_in[39] I
la_data_in[3] I
la_data_in[40] I
la_data_in[41] I
la_data_in[42] I
la_data_in[43] I
la_data_in[44] I
la_data_in[45] I
la_data_in[46] I
la_data_in[47] I
la_data_in[48] I
la_data_in[49] I
la_data_in[4] I
la_data_in[50] I
la_data_in[51] I
la_data_in[52] I
la_data_in[53] I
la_data_in[54] I
la_data_in[55] I
la_data_in[56] I
la_data_in[57] I
la_data_in[58] I
la_data_in[59] I
la_data_in[5] I
la_data_in[60] I
la_data_in[61] I
la_data_in[62] I
la_data_in[63] I
la_data_in[6] I
la_data_in[7] I
la_data_in[8] I
la_data_in[9] I
la_data_out[0] O
la_data_out[10] O
la_data_out[11] O
la_data_out[12] O
la_data_out[13] O
la_data_out[14] O
la_data_out[15] O
la_data_out[16] O
la_data_out[17] O
la_data_out[18] O
la_data_out[19] O
la_data_out[1] O
la_data_out[20] O
la_data_out[21] O
la_data_out[22] O
la_data_out[23] O
la_data_out[24] O
la_data_out[25] O
la_data_out[26] O
la_data_out[27] O
la_data_out[28] O
la_data_out[29] O
la_data_out[2] O
la_data_out[30] O
la_data_out[31] O
la_data_out[32] O
la_data_out[33] O
la_data_out[34] O
la_data_out[35] O
la_data_out[36] O
la_data_out[37] O
la_data_out[38] O
la_data_out[39] O
la_data_out[3] O
la_data_out[40] O
la_data_out[41] O
la_data_out[42] O
la_data_out[43] O
la_data_out[44] O
la_data_out[45] O
la_data_out[46] O
la_data_out[47] O
la_data_out[48] O
la_data_out[49] O
la_data_out[4] O
la_data_out[50] O
la_data_out[51] O
la_data_out[52] O
la_data_out[53] O
la_data_out[54] O
la_data_out[55] O
la_data_out[56] O
la_data_out[57] O
la_data_out[58] O
la_data_out[59] O
la_data_out[5] O
la_data_out[60] O
la_data_out[61] O
la_data_out[62] O
la_data_out[63] O
la_data_out[6] O
la_data_out[7] O
la_data_out[8] O
la_data_out[9] O
la_oenb[0] I
la_oenb[10] I
la_oenb[11] I
la_oenb[12] I
la_oenb[13] I
la_oenb[14] I
la_oenb[15] I
la_oenb[16] I
la_oenb[17] I
la_oenb[18] I
la_oenb[19] I
la_oenb[1] I
la_oenb[20] I
la_oenb[21] I
la_oenb[22] I
la_oenb[23] I
la_oenb[24] I
la_oenb[25] I
la_oenb[26] I
la_oenb[27] I
la_oenb[28] I
la_oenb[29] I
la_oenb[2] I
la_oenb[30] I
la_oenb[31] I
la_oenb[32] I
la_oenb[33] I
la_oenb[34] I
la_oenb[35] I
la_oenb[36] I
la_oenb[37] I
la_oenb[38] I
la_oenb[39] I
la_oenb[3] I
la_oenb[40] I
la_oenb[41] I
la_oenb[42] I
la_oenb[43] I
la_oenb[44] I
la_oenb[45] I
la_oenb[46] I
la_oenb[47] I
la_oenb[48] I
la_oenb[49] I
la_oenb[4] I
la_oenb[50] I
la_oenb[51] I
la_oenb[52] I
la_oenb[53] I
la_oenb[54] I
la_oenb[55] I
la_oenb[56] I
la_oenb[57] I
la_oenb[58] I
la_oenb[59] I
la_oenb[5] I
la_oenb[60] I
la_oenb[61] I
la_oenb[62] I
la_oenb[63] I
la_oenb[6] I
la_oenb[7] I
la_oenb[8] I
la_oenb[9] I
user_clock2 I
user_irq[0] O
user_irq[1] O
user_irq[2] O
wb_clk_i I
wb_rst_i I
wbs_ack_o O
wbs_adr_i[0] I
wbs_adr_i[10] I
wbs_adr_i[11] I
wbs_adr_i[12] I
wbs_adr_i[13] I
wbs_adr_i[14] I
wbs_adr_i[15] I
wbs_adr_i[16] I
wbs_adr_i[17] I
wbs_adr_i[18] I
wbs_adr_i[19] I
wbs_adr_i[1] I
wbs_adr_i[20] I
wbs_adr_i[21] I
wbs_adr_i[22] I
wbs_adr_i[23] I
wbs_adr_i[24] I
wbs_adr_i[25] I
wbs_adr_i[26] I
wbs_adr_i[27] I
wbs_adr_i[28] I
wbs_adr_i[29] I
wbs_adr_i[2] I
wbs_adr_i[30] I
wbs_adr_i[31] I
wbs_adr_i[3] I
wbs_adr_i[4] I
wbs_adr_i[5] I
wbs_adr_i[6] I
wbs_adr_i[7] I
wbs_adr_i[8] I
wbs_adr_i[9] I
wbs_cyc_i I
wbs_dat_i[0] I
wbs_dat_i[10] I
wbs_dat_i[11] I
wbs_dat_i[12] I
wbs_dat_i[13] I
wbs_dat_i[14] I
wbs_dat_i[15] I
wbs_dat_i[16] I
wbs_dat_i[17] I
wbs_dat_i[18] I
wbs_dat_i[19] I
wbs_dat_i[1] I
wbs_dat_i[20] I
wbs_dat_i[21] I
wbs_dat_i[22] I
wbs_dat_i[23] I
wbs_dat_i[24] I
wbs_dat_i[25] I
wbs_dat_i[26] I
wbs_dat_i[27] I
wbs_dat_i[28] I
wbs_dat_i[29] I
wbs_dat_i[2] I
wbs_dat_i[30] I
wbs_dat_i[31] I
wbs_dat_i[3] I
wbs_dat_i[4] I
wbs_dat_i[5] I
wbs_dat_i[6] I
wbs_dat_i[7] I
wbs_dat_i[8] I
wbs_dat_i[9] I
wbs_dat_o[0] O
wbs_dat_o[10] O
wbs_dat_o[11] O
wbs_dat_o[12] O
wbs_dat_o[13] O
wbs_dat_o[14] O
wbs_dat_o[15] O
wbs_dat_o[16] O
wbs_dat_o[17] O
wbs_dat_o[18] O
wbs_dat_o[19] O
wbs_dat_o[1] O
wbs_dat_o[20] O
wbs_dat_o[21] O
wbs_dat_o[22] O
wbs_dat_o[23] O
wbs_dat_o[24] O
wbs_dat_o[25] O
wbs_dat_o[26] O
wbs_dat_o[27] O
wbs_dat_o[28] O
wbs_dat_o[29] O
wbs_dat_o[2] O
wbs_dat_o[30] O
wbs_dat_o[31] O
wbs_dat_o[3] O
wbs_dat_o[4] O
wbs_dat_o[5] O
wbs_dat_o[6] O
wbs_dat_o[7] O
wbs_dat_o[8] O
wbs_dat_o[9] O
wbs_sel_i[0] I
wbs_sel_i[1] I
wbs_sel_i[2] I
wbs_sel_i[3] I
wbs_stb_i I
wbs_we_i I

*D_NET *1 0.52201
*CONN
*P io_in[0] I
*I *419:io_in[0] I *D wrapped_as2650
*CAP
1 io_in[0] 0.00466579
2 *419:io_in[0] 0.00023556
3 *1:12 0.0486927
4 *1:11 0.0484571
5 *1:9 0.0692184
6 *1:7 0.0738841
7 *419:io_in[0] *22:11 0.000324263
8 *1:9 *314:8 0
9 *1:12 *77:11 0.276532
*RES
1 io_in[0] *1:7 37.305 
2 *1:7 *1:9 542.7 
3 *1:9 *1:11 4.5 
4 *1:11 *1:12 724.59 
5 *1:12 *419:io_in[0] 1.845 
*END

*D_NET *2 0.237
*CONN
*P io_in[10] I
*I *419:io_in[10] I *D wrapped_as2650
*CAP
1 io_in[10] 0.000276945
2 *419:io_in[10] 0.00020158
3 *2:11 0.0478851
4 *2:10 0.0476835
5 *2:8 0.00579667
6 *2:7 0.00607362
7 *2:8 *37:8 0.0347619
8 *2:11 *27:19 0
9 *2:11 *30:15 0.0787073
10 *2:11 *39:5 0
11 *2:11 *69:10 0.0019893
12 *2:11 *75:8 0.00749799
13 *2:11 *106:10 0.00612606
*RES
1 io_in[10] *2:7 6.705 
2 *2:7 *2:8 88.47 
3 *2:8 *2:10 4.5 
4 *2:10 *2:11 499.77 
5 *2:11 *419:io_in[10] 5.985 
*END

*D_NET *3 0.230779
*CONN
*P io_in[11] I
*I *419:io_in[11] I *D wrapped_as2650
*CAP
1 io_in[11] 0.000363112
2 *419:io_in[11] 0.000357413
3 *3:19 0.00821091
4 *3:18 0.0115683
5 *3:13 0.0478897
6 *3:11 0.0445381
7 *419:io_in[11] *41:9 0
8 *3:18 *31:16 0
9 *3:18 *68:11 0
10 *3:19 *20:13 0.0478874
11 *3:19 *24:19 0.0568722
12 *3:19 *50:8 0
13 *3:19 *75:8 0.0130915
*RES
1 io_in[11] *3:11 3.195 
2 *3:11 *3:13 278.37 
3 *3:13 *3:18 36.99 
4 *3:18 *3:19 216.09 
5 *3:19 *419:io_in[11] 6.705 
*END

*D_NET *4 0.142023
*CONN
*P io_in[12] I
*I *419:io_in[12] I *D wrapped_as2650
*CAP
1 io_in[12] 0.000167227
2 *419:io_in[12] 0.00516765
3 *4:21 0.00716112
4 *4:13 0.0630862
5 *4:11 0.06126
6 *419:io_in[12] *79:7 0
7 *4:13 *5:11 0
8 *4:13 *48:10 0
9 *4:13 *51:14 0
10 *4:13 *82:16 0
11 *4:21 *419:io_in[14] 0
12 *4:21 *43:7 0
13 *4:21 *43:8 8.90289e-06
14 *4:21 *49:14 0
15 *4:21 *65:8 0.00478051
16 *4:21 *81:20 0.000391541
*RES
1 io_in[12] *4:11 2.115 
2 *4:11 *4:13 475.47 
3 *4:13 *4:21 33.66 
4 *4:21 *419:io_in[12] 31.995 
*END

*D_NET *5 0.181144
*CONN
*P io_in[13] I
*I *419:io_in[13] I *D wrapped_as2650
*CAP
1 io_in[13] 0.000470965
2 *419:io_in[13] 0.00596185
3 *5:11 0.0644384
4 *5:10 0.0584765
5 *5:8 0.00434455
6 *5:7 0.00481551
7 *419:io_in[13] *42:11 0
8 *5:8 *43:11 0.0260673
9 *5:11 *82:16 0.0165689
10 *5:11 *114:14 0
11 *4:13 *5:11 0
*RES
1 io_in[13] *5:7 8.325 
2 *5:7 *5:8 66.33 
3 *5:8 *5:10 4.5 
4 *5:10 *5:11 475.65 
5 *5:11 *419:io_in[13] 42.525 
*END

*D_NET *6 0.225728
*CONN
*P io_in[14] I
*I *419:io_in[14] I *D wrapped_as2650
*CAP
1 io_in[14] 0.000648266
2 *419:io_in[14] 0.00586684
3 *6:11 0.059671
4 *6:10 0.0538041
5 *6:8 0.0100507
6 *6:7 0.010699
7 *419:io_in[14] *44:13 0
8 *419:io_in[14] *81:20 0
9 *6:8 *43:11 0.0438258
10 *6:11 *73:10 0
11 *6:11 *80:10 0.0411619
12 *6:11 *114:14 0
13 *4:21 *419:io_in[14] 0
*RES
1 io_in[14] *6:7 8.685 
2 *6:7 *6:8 132.75 
3 *6:8 *6:10 4.5 
4 *6:10 *6:11 469.71 
5 *6:11 *419:io_in[14] 41.895 
*END

*D_NET *7 0.175761
*CONN
*P io_in[15] I
*I *419:io_in[15] I *D wrapped_as2650
*CAP
1 io_in[15] 0.0217662
2 *419:io_in[15] 0.0025626
3 *7:13 0.00842666
4 *7:8 0.0635515
5 *7:7 0.0576874
6 *7:5 0.0217662
*RES
1 io_in[15] *7:5 167.625 
2 *7:5 *7:7 4.5 
3 *7:7 *7:8 448.29 
4 *7:8 *7:13 44.37 
5 *7:13 *419:io_in[15] 16.065 
*END

*D_NET *8 0.146382
*CONN
*P io_in[16] I
*I *419:io_in[16] I *D wrapped_as2650
*CAP
1 io_in[16] 0.000247817
2 *419:io_in[16] 0.000166616
3 *8:19 0.00871833
4 *8:18 0.00855171
5 *8:16 0.0427656
6 *8:15 0.0427656
7 *8:13 0.0214591
8 *8:11 0.021707
9 *8:19 *83:10 0
10 *8:19 *83:11 0
*RES
1 io_in[16] *8:11 2.655 
2 *8:11 *8:13 164.97 
3 *8:13 *8:15 4.5 
4 *8:15 *8:16 332.19 
5 *8:16 *8:18 4.5 
6 *8:18 *8:19 56.61 
7 *8:19 *419:io_in[16] 1.305 
*END

*D_NET *9 0.11684
*CONN
*P io_in[17] I
*I *419:io_in[17] I *D wrapped_as2650
*CAP
1 io_in[17] 0.0013584
2 *419:io_in[17] 9.76714e-05
3 *9:17 0.0097268
4 *9:16 0.00962913
5 *9:14 0.0279603
6 *9:13 0.0279603
7 *9:11 0.0192836
8 *9:10 0.020642
9 *9:10 *46:14 0.000181847
10 *9:17 *46:11 0
*RES
1 io_in[17] *9:10 19.935 
2 *9:10 *9:11 148.05 
3 *9:11 *9:13 4.5 
4 *9:13 *9:14 217.35 
5 *9:14 *9:16 4.5 
6 *9:16 *9:17 64.71 
7 *9:17 *419:io_in[17] 0.765 
*END

*D_NET *10 0.0877397
*CONN
*P io_in[18] I
*I *419:io_in[18] I *D wrapped_as2650
*CAP
1 io_in[18] 0.00143099
2 *419:io_in[18] 0.00242341
3 *10:17 0.0238212
4 *10:16 0.0213978
5 *10:14 0.0130609
6 *10:13 0.0185684
7 *10:10 0.0069384
8 *10:10 *46:14 9.85843e-05
*RES
1 io_in[18] *10:10 19.755 
2 *10:10 *10:13 46.35 
3 *10:13 *10:14 101.25 
4 *10:14 *10:16 4.5 
5 *10:16 *10:17 158.04 
6 *10:17 *419:io_in[18] 14.985 
*END

*D_NET *11 0.0628738
*CONN
*P io_in[19] I
*I *419:io_in[19] I *D wrapped_as2650
*CAP
1 io_in[19] 0.00214637
2 *419:io_in[19] 0.00268931
3 *11:11 0.0292906
4 *11:10 0.0287476
5 *419:io_in[19] *49:13 0
6 *11:10 *16:8 0
7 *11:11 *86:9 0
*RES
1 io_in[19] *11:10 25.695 
2 *11:10 *11:11 197.1 
3 *11:11 *419:io_in[19] 17.055 
*END

*D_NET *12 0.732377
*CONN
*P io_in[1] I
*I *419:io_in[1] I *D wrapped_as2650
*CAP
1 io_in[1] 0.000492522
2 *419:io_in[1] 0.00112073
3 *12:11 0.0518748
4 *12:10 0.0507541
5 *12:8 0.0036383
6 *12:7 0.00413082
7 *12:8 *23:8 0.000467757
8 *12:8 *39:8 0.259518
9 *12:8 *50:11 0.24448
10 *12:11 *29:19 0.00460209
11 *12:11 *40:8 0.00376659
12 *12:11 *42:10 0.00131476
13 *12:11 *46:10 0.00221834
14 *12:11 *51:10 0.00111792
15 *12:11 *57:8 0
16 *12:11 *83:10 0.00103135
17 *12:11 *90:8 0.00996313
18 *12:11 *92:8 0
19 *12:11 *101:8 0.0918862
*RES
1 io_in[1] *12:7 8.505 
2 *12:7 *12:8 667.17 
3 *12:8 *12:10 4.5 
4 *12:10 *12:11 566.01 
5 *12:11 *419:io_in[1] 11.205 
*END

*D_NET *13 0.104145
*CONN
*P io_in[20] I
*I *419:io_in[20] I *D wrapped_as2650
*CAP
1 io_in[20] 0.0010289
2 *419:io_in[20] 0.002379
3 *13:19 0.00658469
4 *13:11 0.0281521
5 *13:10 0.0239464
6 *13:8 0.0073508
7 *13:7 0.0083797
8 *419:io_in[20] *51:13 0.000404972
9 *13:8 *16:8 0.0185286
10 *13:8 *46:14 0.00111452
11 *13:11 *47:9 0
12 *13:11 *85:7 0
13 *13:19 *44:14 0.00082321
14 *13:19 *49:14 0.00464704
15 *13:19 *51:13 0
16 *13:19 *73:10 0.000805422
*RES
1 io_in[20] *13:7 12.465 
2 *13:7 *13:8 103.59 
3 *13:8 *13:10 4.5 
4 *13:10 *13:11 180.81 
5 *13:11 *13:19 45.54 
6 *13:19 *419:io_in[20] 16.065 
*END

*D_NET *14 0.121155
*CONN
*P io_in[21] I
*I *419:io_in[21] I *D wrapped_as2650
*CAP
1 io_in[21] 0.00133604
2 *419:io_in[21] 0.000166616
3 *14:17 0.0246361
4 *14:16 0.0244695
5 *14:14 0.0299525
6 *14:13 0.0344781
7 *14:10 0.00586157
8 *14:10 *16:8 0.000254726
9 *14:17 *48:11 0
*RES
1 io_in[21] *14:10 19.935 
2 *14:10 *14:13 39.15 
3 *14:13 *14:14 233.73 
4 *14:14 *14:16 4.5 
5 *14:16 *14:17 178.11 
6 *14:17 *419:io_in[21] 1.305 
*END

*D_NET *15 0.150516
*CONN
*P io_in[22] I
*I *419:io_in[22] I *D wrapped_as2650
*CAP
1 io_in[22] 0.00485065
2 *419:io_in[22] 9.76714e-05
3 *15:15 0.0111436
4 *15:14 0.0110459
5 *15:12 0.0450358
6 *15:11 0.0450358
7 *15:9 0.014228
8 *15:7 0.0190787
9 *15:15 *16:11 0
10 *15:15 *90:7 0
*RES
1 io_in[22] *15:7 37.305 
2 *15:7 *15:9 109.44 
3 *15:9 *15:11 4.5 
4 *15:11 *15:12 351.09 
5 *15:12 *15:14 4.5 
6 *15:14 *15:15 75.51 
7 *15:15 *419:io_in[22] 0.765 
*END

*D_NET *16 0.200317
*CONN
*P io_in[23] I
*I *419:io_in[23] I *D wrapped_as2650
*CAP
1 io_in[23] 0.00107486
2 *419:io_in[23] 0.0019351
3 *16:11 0.029711
4 *16:10 0.0277759
5 *16:8 0.0498021
6 *16:7 0.0508769
7 *419:io_in[23] *21:19 0.00393445
8 *419:io_in[23] *23:11 0
9 *16:8 io_oeb[19] 0.00235719
10 *16:8 *46:14 0.0140664
11 *11:10 *16:8 0
12 *13:8 *16:8 0.0185286
13 *14:10 *16:8 0.000254726
14 *15:15 *16:11 0
*RES
1 io_in[23] *16:7 12.825 
2 *16:7 *16:8 455.13 
3 *16:8 *16:10 4.5 
4 *16:10 *16:11 205.47 
5 *16:11 *419:io_in[23] 26.595 
*END

*D_NET *17 0.23463
*CONN
*P io_in[24] I
*I *419:io_in[24] I *D wrapped_as2650
*CAP
1 io_in[24] 0.000201168
2 *419:io_in[24] 0.00345365
3 *17:16 0.0298747
4 *17:15 0.0264211
5 *17:13 0.08543
6 *17:11 0.0856312
7 *419:io_in[24] *35:11 0
8 *419:io_in[24] *55:9 0
9 *419:io_in[24] *79:8 0.00361798
10 *17:13 *83:14 0
*RES
1 io_in[24] *17:11 1.935 
2 *17:11 *17:13 540.81 
3 *17:13 *17:15 4.5 
4 *17:15 *17:16 195.93 
5 *17:16 *419:io_in[24] 39.735 
*END

*D_NET *18 0.184662
*CONN
*P io_in[25] I
*I *419:io_in[25] I *D wrapped_as2650
*CAP
1 io_in[25] 0.00117627
2 *419:io_in[25] 0.00251467
3 *18:16 0.00793573
4 *18:11 0.0770807
5 *18:10 0.0716596
6 *18:8 0.0115594
7 *18:7 0.0127357
*RES
1 io_in[25] *18:7 13.365 
2 *18:7 *18:8 88.65 
3 *18:8 *18:10 4.5 
4 *18:10 *18:11 557.73 
5 *18:11 *18:16 41.67 
6 *18:16 *419:io_in[25] 16.065 
*END

*D_NET *19 0.168694
*CONN
*P io_in[26] I
*I *419:io_in[26] I *D wrapped_as2650
*CAP
1 io_in[26] 0.00179421
2 *419:io_in[26] 0.000166616
3 *19:12 0.0105732
4 *19:11 0.0104066
5 *19:9 0.0719797
6 *19:7 0.0737739
7 *19:9 *91:10 0
*RES
1 io_in[26] *19:7 13.185 
2 *19:7 *19:9 561.78 
3 *19:9 *19:11 4.5 
4 *19:11 *19:12 71.55 
5 *19:12 *419:io_in[26] 1.305 
*END

*D_NET *20 0.191915
*CONN
*P io_in[27] I
*I *419:io_in[27] I *D wrapped_as2650
*CAP
1 io_in[27] 0.000206893
2 *419:io_in[27] 0.000396372
3 *20:13 0.0626692
4 *20:11 0.0624797
5 *20:13 *24:19 0.0161828
6 *20:13 *30:15 0.0020922
7 *20:13 *50:8 0
8 *3:19 *20:13 0.0478874
*RES
1 io_in[27] *20:11 1.935 
2 *20:11 *20:13 583.47 
3 *20:13 *419:io_in[27] 6.885 
*END

*D_NET *21 0.220555
*CONN
*P io_in[28] I
*I *419:io_in[28] I *D wrapped_as2650
*CAP
1 io_in[28] 0.000249598
2 *419:io_in[28] 0.00120881
3 *21:19 0.0160925
4 *21:18 0.0148837
5 *21:16 0.00981049
6 *21:15 0.00981049
7 *21:13 0.0483333
8 *21:11 0.0485829
9 *21:16 *77:11 0
10 *21:19 *23:11 0
11 *21:19 *25:15 0.0147701
12 *21:19 *40:8 0.0528785
13 *419:io_in[23] *21:19 0.00393445
*RES
1 io_in[28] *21:11 2.475 
2 *21:11 *21:13 376.11 
3 *21:13 *21:15 4.5 
4 *21:15 *21:16 73.89 
5 *21:16 *21:18 4.5 
6 *21:18 *21:19 215.01 
7 *21:19 *419:io_in[28] 12.105 
*END

*D_NET *22 0.247731
*CONN
*P io_in[29] I
*I *419:io_in[29] I *D wrapped_as2650
*CAP
1 io_in[29] 0.00117627
2 *419:io_in[29] 0
3 *22:11 0.0599535
4 *22:10 0.0599535
5 *22:8 0.0171296
6 *22:7 0.0183059
7 *22:11 *27:19 0.00308153
8 *22:11 *39:5 0.0878063
9 *419:io_in[0] *22:11 0.000324263
*RES
1 io_in[29] *22:7 13.365 
2 *22:7 *22:8 131.67 
3 *22:8 *22:10 4.5 
4 *22:10 *22:11 589.77 
5 *22:11 *419:io_in[29] 4.5 
*END

*D_NET *23 0.761183
*CONN
*P io_in[2] I
*I *419:io_in[2] I *D wrapped_as2650
*CAP
1 io_in[2] 0.000449407
2 *419:io_in[2] 0.00145791
3 *23:11 0.0396425
4 *23:10 0.0381846
5 *23:8 0.00332515
6 *23:7 0.00377456
7 *23:8 *50:11 0.236132
8 *23:8 *61:13 0.221553
9 *23:11 *34:11 0.213463
10 *23:11 *64:8 0.002732
11 *419:io_in[23] *23:11 0
12 *12:8 *23:8 0.000467757
13 *21:19 *23:11 0
*RES
1 io_in[2] *23:7 8.145 
2 *23:7 *23:8 606.15 
3 *23:8 *23:10 4.5 
4 *23:10 *23:11 558.81 
5 *23:11 *419:io_in[2] 13.905 
*END

*D_NET *24 0.304379
*CONN
*P io_in[30] I
*I *419:io_in[30] I *D wrapped_as2650
*CAP
1 io_in[30] 0.000113196
2 *419:io_in[30] 0.000318455
3 *24:19 0.00238249
4 *24:18 0.00206403
5 *24:16 0.0263892
6 *24:15 0.0263892
7 *24:13 0.0478937
8 *24:11 0.0480068
9 *419:io_in[30] *62:13 0
10 *24:19 *30:15 0.0128718
11 *24:19 *75:8 0.0648954
12 *3:19 *24:19 0.0568722
13 *20:13 *24:19 0.0161828
*RES
1 io_in[30] *24:11 1.395 
2 *24:11 *24:13 373.41 
3 *24:13 *24:15 4.5 
4 *24:15 *24:16 203.31 
5 *24:16 *24:18 4.5 
6 *24:18 *24:19 232.83 
7 *24:19 *419:io_in[30] 6.525 
*END

*D_NET *25 0.347563
*CONN
*P io_in[31] I
*I *419:io_in[31] I *D wrapped_as2650
*CAP
1 io_in[31] 0.00177706
2 *419:io_in[31] 0.0011149
3 *25:15 0.00353113
4 *25:14 0.00241622
5 *25:12 0.0359626
6 *25:11 0.0359626
7 *25:9 0.0454415
8 *25:7 0.0472186
9 *25:15 *29:19 0.0974457
10 *25:15 *40:8 0.0619224
11 *21:19 *25:15 0.0147701
*RES
1 io_in[31] *25:7 13.185 
2 *25:7 *25:9 355.14 
3 *25:9 *25:11 4.5 
4 *25:11 *25:12 276.03 
5 *25:12 *25:14 4.5 
6 *25:14 *25:15 245.79 
7 *25:15 *419:io_in[31] 11.745 
*END

*D_NET *26 0.312111
*CONN
*P io_in[32] I
*I *419:io_in[32] I *D wrapped_as2650
*CAP
1 io_in[32] 0.000323383
2 *419:io_in[32] 0.00198034
3 *26:19 0.0195672
4 *26:18 0.0175868
5 *26:16 0.0458388
6 *26:15 0.0458388
7 *26:13 0.0474807
8 *26:11 0.047804
9 *26:19 *67:8 0.0117558
10 *26:19 *74:8 0.0739352
11 *26:19 *103:14 0
*RES
1 io_in[32] *26:11 3.015 
2 *26:11 *26:13 370.71 
3 *26:13 *26:15 4.5 
4 *26:15 *26:16 351.99 
5 *26:16 *26:18 4.5 
6 *26:18 *26:19 250.65 
7 *26:19 *419:io_in[32] 17.505 
*END

*D_NET *27 0.342342
*CONN
*P io_in[33] I
*I *419:io_in[33] I *D wrapped_as2650
*CAP
1 io_in[33] 0.000242542
2 *419:io_in[33] 0
3 *27:19 0.0199065
4 *27:18 0.0199065
5 *27:16 0.0526722
6 *27:15 0.0526722
7 *27:13 0.0467825
8 *27:11 0.047025
9 *27:19 *30:15 0
10 *27:19 *39:5 0.100053
11 *27:19 *77:10 0
12 *2:11 *27:19 0
13 *22:11 *27:19 0.00308153
*RES
1 io_in[33] *27:11 2.475 
2 *27:11 *27:13 365.31 
3 *27:13 *27:15 4.5 
4 *27:15 *27:16 406.35 
5 *27:16 *27:18 4.5 
6 *27:18 *27:19 263.61 
7 *27:19 *419:io_in[33] 4.5 
*END

*D_NET *28 0.42464
*CONN
*P io_in[34] I
*I *419:io_in[34] I *D wrapped_as2650
*CAP
1 io_in[34] 0.000177869
2 *419:io_in[34] 0.00255798
3 *28:19 0.00447567
4 *28:18 0.00191769
5 *28:16 0.0636282
6 *28:15 0.0636282
7 *28:13 0.0464034
8 *28:11 0.0465812
9 *419:io_in[34] *66:13 0
10 *419:io_in[34] *103:13 0
11 *28:19 *36:11 0.0804812
12 *28:19 *62:14 0.0971731
13 *28:19 *78:14 0.00498514
14 *28:19 *103:14 0.0126308
*RES
1 io_in[34] *28:11 1.935 
2 *28:11 *28:13 362.61 
3 *28:13 *28:15 4.5 
4 *28:15 *28:16 489.15 
5 *28:16 *28:18 4.5 
6 *28:18 *28:19 271.71 
7 *28:19 *419:io_in[34] 22.095 
*END

*D_NET *29 0.451927
*CONN
*P io_in[35] I
*I *419:io_in[35] I *D wrapped_as2650
*CAP
1 io_in[35] 0.000113196
2 *419:io_in[35] 0.00104628
3 *29:19 0.00348352
4 *29:18 0.00243724
5 *29:16 0.0712305
6 *29:15 0.0712305
7 *29:13 0.0460195
8 *29:11 0.0461327
9 *29:19 *40:8 0.00550272
10 *29:19 *101:8 0.102683
11 *12:11 *29:19 0.00460209
12 *25:15 *29:19 0.0974457
*RES
1 io_in[35] *29:11 1.395 
2 *29:11 *29:13 359.91 
3 *29:13 *29:15 4.5 
4 *29:15 *29:16 548.55 
5 *29:16 *29:18 4.5 
6 *29:18 *29:19 284.13 
7 *29:19 *419:io_in[35] 11.565 
*END

*D_NET *30 0.442278
*CONN
*P io_in[36] I
*I *419:io_in[36] I *D wrapped_as2650
*CAP
1 io_in[36] 0.00177706
2 *419:io_in[36] 0.000240538
3 *30:15 0.00811166
4 *30:14 0.00787112
5 *30:12 0.0791605
6 *30:11 0.0791605
7 *30:9 0.0427005
8 *30:7 0.0444776
9 *30:15 *75:8 0.0837691
10 *30:15 *77:10 0.00133779
11 *2:11 *30:15 0.0787073
12 *20:13 *30:15 0.0020922
13 *24:19 *30:15 0.0128718
14 *27:19 *30:15 0
*RES
1 io_in[36] *30:7 13.185 
2 *30:7 *30:9 336.24 
3 *30:9 *30:11 4.5 
4 *30:11 *30:12 610.65 
5 *30:12 *30:14 4.5 
6 *30:14 *30:15 302.49 
7 *30:15 *419:io_in[36] 6.165 
*END

*D_NET *31 0.361338
*CONN
*P io_in[37] I
*I *419:io_in[37] I *D wrapped_as2650
*CAP
1 io_in[37] 0.000323383
2 *419:io_in[37] 0.00151682
3 *31:16 0.0893726
4 *31:15 0.0878558
5 *31:13 0.0868371
6 *31:11 0.0871605
7 *419:io_in[37] *39:5 0.00827144
8 *3:18 *31:16 0
*RES
1 io_in[37] *31:11 3.015 
2 *31:11 *31:13 679.95 
3 *31:13 *31:15 4.5 
4 *31:15 *31:16 678.69 
5 *31:16 *419:io_in[37] 29.97 
*END

*D_NET *32 0.710445
*CONN
*P io_in[3] I
*I *419:io_in[3] I *D wrapped_as2650
*CAP
1 io_in[3] 0.000406292
2 *419:io_in[3] 0.00350466
3 *32:11 0.0528026
4 *32:10 0.0492979
5 *32:8 0.00479654
6 *32:7 0.00520283
7 *32:8 *33:8 0.191361
8 *32:8 *37:8 0.000171428
9 *32:8 *61:13 0.218516
10 *32:11 *76:14 0.0989824
11 *32:11 *97:14 0.00728594
12 *32:11 *100:14 0.0781176
*RES
1 io_in[3] *32:7 7.785 
2 *32:7 *32:8 556.11 
3 *32:8 *32:10 4.5 
4 *32:10 *32:11 551.79 
5 *32:11 *419:io_in[3] 27.945 
*END

*D_NET *33 0.727577
*CONN
*P io_in[4] I
*I *419:io_in[4] I *D wrapped_as2650
*CAP
1 io_in[4] 0.000483535
2 *419:io_in[4] 0.00299539
3 *33:11 0.0225843
4 *33:10 0.0195889
5 *33:8 0.00464391
6 *33:7 0.00512745
7 *419:io_in[4] *71:13 0
8 *419:io_in[4] *108:13 0
9 *33:8 *34:8 0.163164
10 *33:8 *35:8 0.000440019
11 *33:8 *36:8 0.000332163
12 *33:8 *37:8 0.000208944
13 *33:11 *41:16 0.1242
14 *33:11 *66:14 0.0911107
15 *33:11 *71:14 0.00913192
16 *33:11 *104:14 0.0922041
17 *32:8 *33:8 0.191361
*RES
1 io_in[4] *33:7 7.605 
2 *33:7 *33:8 486.99 
3 *33:8 *33:10 4.5 
4 *33:10 *33:11 546.39 
5 *33:11 *419:io_in[4] 24.615 
*END

*D_NET *34 0.682506
*CONN
*P io_in[5] I
*I *419:io_in[5] I *D wrapped_as2650
*CAP
1 io_in[5] 0.000363176
2 *419:io_in[5] 0.00150947