*SPEF "ieee 1481-1999"
*DESIGN "user_project_wrapper"
*DATE "11:11:11 Fri 11 11, 1111"
*VENDOR "OpenRCX"
*PROGRAM "Parallel Extraction"
*VERSION "1.0"
*DESIGN_FLOW "NAME_SCOPE LOCAL" "PIN_CAP NONE"
*DIVIDER /
*DELIMITER :
*BUS_DELIMITER []
*T_UNIT 1 NS
*C_UNIT 1 PF
*R_UNIT 1 OHM
*L_UNIT 1 HENRY

*NAME_MAP
*1 io_in[0]
*2 io_in[10]
*3 io_in[11]
*4 io_in[12]
*5 io_in[13]
*6 io_in[14]
*7 io_in[15]
*8 io_in[16]
*9 io_in[17]
*10 io_in[18]
*11 io_in[19]
*12 io_in[1]
*13 io_in[20]
*14 io_in[21]
*15 io_in[22]
*16 io_in[23]
*17 io_in[24]
*18 io_in[25]
*19 io_in[26]
*20 io_in[27]
*21 io_in[28]
*22 io_in[29]
*23 io_in[2]
*24 io_in[30]
*25 io_in[31]
*26 io_in[32]
*27 io_in[33]
*28 io_in[34]
*29 io_in[35]
*30 io_in[36]
*31 io_in[37]
*32 io_in[3]
*33 io_in[4]
*34 io_in[5]
*35 io_in[6]
*36 io_in[7]
*37 io_in[8]
*38 io_in[9]
*39 io_oeb[0]
*40 io_oeb[10]
*41 io_oeb[11]
*42 io_oeb[12]
*43 io_oeb[13]
*44 io_oeb[14]
*45 io_oeb[15]
*46 io_oeb[16]
*47 io_oeb[17]
*48 io_oeb[18]
*49 io_oeb[19]
*50 io_oeb[1]
*51 io_oeb[20]
*52 io_oeb[21]
*53 io_oeb[22]
*54 io_oeb[23]
*55 io_oeb[24]
*56 io_oeb[25]
*57 io_oeb[26]
*58 io_oeb[27]
*59 io_oeb[28]
*60 io_oeb[29]
*61 io_oeb[2]
*62 io_oeb[30]
*63 io_oeb[31]
*64 io_oeb[32]
*65 io_oeb[33]
*66 io_oeb[34]
*67 io_oeb[35]
*68 io_oeb[36]
*69 io_oeb[37]
*70 io_oeb[3]
*71 io_oeb[4]
*72 io_oeb[5]
*73 io_oeb[6]
*74 io_oeb[7]
*75 io_oeb[8]
*76 io_oeb[9]
*77 io_out[0]
*78 io_out[10]
*79 io_out[11]
*80 io_out[12]
*81 io_out[13]
*82 io_out[14]
*83 io_out[15]
*84 io_out[16]
*85 io_out[17]
*86 io_out[18]
*87 io_out[19]
*88 io_out[1]
*89 io_out[20]
*90 io_out[21]
*91 io_out[22]
*92 io_out[23]
*93 io_out[24]
*94 io_out[25]
*95 io_out[26]
*96 io_out[27]
*97 io_out[28]
*98 io_out[29]
*99 io_out[2]
*100 io_out[30]
*101 io_out[31]
*102 io_out[32]
*103 io_out[33]
*104 io_out[34]
*105 io_out[35]
*106 io_out[36]
*107 io_out[37]
*108 io_out[3]
*109 io_out[4]
*110 io_out[5]
*111 io_out[6]
*112 io_out[7]
*113 io_out[8]
*114 io_out[9]
*115 la_data_in[0]
*116 la_data_in[10]
*117 la_data_in[11]
*118 la_data_in[12]
*119 la_data_in[13]
*120 la_data_in[14]
*121 la_data_in[15]
*122 la_data_in[16]
*123 la_data_in[17]
*124 la_data_in[18]
*125 la_data_in[19]
*126 la_data_in[1]
*127 la_data_in[20]
*128 la_data_in[21]
*129 la_data_in[22]
*130 la_data_in[23]
*131 la_data_in[24]
*132 la_data_in[25]
*133 la_data_in[26]
*134 la_data_in[27]
*135 la_data_in[28]
*136 la_data_in[29]
*137 la_data_in[2]
*138 la_data_in[30]
*139 la_data_in[31]
*140 la_data_in[32]
*141 la_data_in[33]
*142 la_data_in[34]
*143 la_data_in[35]
*144 la_data_in[36]
*145 la_data_in[37]
*146 la_data_in[38]
*147 la_data_in[39]
*148 la_data_in[3]
*149 la_data_in[40]
*150 la_data_in[41]
*151 la_data_in[42]
*152 la_data_in[43]
*153 la_data_in[44]
*154 la_data_in[45]
*155 la_data_in[46]
*156 la_data_in[47]
*157 la_data_in[48]
*158 la_data_in[49]
*159 la_data_in[4]
*160 la_data_in[50]
*161 la_data_in[51]
*162 la_data_in[52]
*163 la_data_in[53]
*164 la_data_in[54]
*165 la_data_in[55]
*166 la_data_in[56]
*167 la_data_in[57]
*168 la_data_in[58]
*169 la_data_in[59]
*170 la_data_in[5]
*171 la_data_in[60]
*172 la_data_in[61]
*173 la_data_in[62]
*174 la_data_in[63]
*175 la_data_in[6]
*176 la_data_in[7]
*177 la_data_in[8]
*178 la_data_in[9]
*179 la_data_out[0]
*180 la_data_out[10]
*181 la_data_out[11]
*182 la_data_out[12]
*183 la_data_out[13]
*184 la_data_out[14]
*185 la_data_out[15]
*186 la_data_out[16]
*187 la_data_out[17]
*188 la_data_out[18]
*189 la_data_out[19]
*190 la_data_out[1]
*191 la_data_out[20]
*192 la_data_out[21]
*193 la_data_out[22]
*194 la_data_out[23]
*195 la_data_out[24]
*196 la_data_out[25]
*197 la_data_out[26]
*198 la_data_out[27]
*199 la_data_out[28]
*200 la_data_out[29]
*201 la_data_out[2]
*202 la_data_out[30]
*203 la_data_out[31]
*204 la_data_out[32]
*205 la_data_out[33]
*206 la_data_out[34]
*207 la_data_out[35]
*208 la_data_out[36]
*209 la_data_out[37]
*210 la_data_out[38]
*211 la_data_out[39]
*212 la_data_out[3]
*213 la_data_out[40]
*214 la_data_out[41]
*215 la_data_out[42]
*216 la_data_out[43]
*217 la_data_out[44]
*218 la_data_out[45]
*219 la_data_out[46]
*220 la_data_out[47]
*221 la_data_out[48]
*222 la_data_out[49]
*223 la_data_out[4]
*224 la_data_out[50]
*225 la_data_out[51]
*226 la_data_out[52]
*227 la_data_out[53]
*228 la_data_out[54]
*229 la_data_out[55]
*230 la_data_out[56]
*231 la_data_out[57]
*232 la_data_out[58]
*233 la_data_out[59]
*234 la_data_out[5]
*235 la_data_out[60]
*236 la_data_out[61]
*237 la_data_out[62]
*238 la_data_out[63]
*239 la_data_out[6]
*240 la_data_out[7]
*241 la_data_out[8]
*242 la_data_out[9]
*243 la_oenb[0]
*244 la_oenb[10]
*245 la_oenb[11]
*246 la_oenb[12]
*247 la_oenb[13]
*248 la_oenb[14]
*249 la_oenb[15]
*250 la_oenb[16]
*251 la_oenb[17]
*252 la_oenb[18]
*253 la_oenb[19]
*254 la_oenb[1]
*255 la_oenb[20]
*256 la_oenb[21]
*257 la_oenb[22]
*258 la_oenb[23]
*259 la_oenb[24]
*260 la_oenb[25]
*261 la_oenb[26]
*262 la_oenb[27]
*263 la_oenb[28]
*264 la_oenb[29]
*265 la_oenb[2]
*266 la_oenb[30]
*267 la_oenb[31]
*268 la_oenb[32]
*269 la_oenb[33]
*270 la_oenb[34]
*271 la_oenb[35]
*272 la_oenb[36]
*273 la_oenb[37]
*274 la_oenb[38]
*275 la_oenb[39]
*276 la_oenb[3]
*277 la_oenb[40]
*278 la_oenb[41]
*279 la_oenb[42]
*280 la_oenb[43]
*281 la_oenb[44]
*282 la_oenb[45]
*283 la_oenb[46]
*284 la_oenb[47]
*285 la_oenb[48]
*286 la_oenb[49]
*287 la_oenb[4]
*288 la_oenb[50]
*289 la_oenb[51]
*290 la_oenb[52]
*291 la_oenb[53]
*292 la_oenb[54]
*293 la_oenb[55]
*294 la_oenb[56]
*295 la_oenb[57]
*296 la_oenb[58]
*297 la_oenb[59]
*298 la_oenb[5]
*299 la_oenb[60]
*300 la_oenb[61]
*301 la_oenb[62]
*302 la_oenb[63]
*303 la_oenb[6]
*304 la_oenb[7]
*305 la_oenb[8]
*306 la_oenb[9]
*307 user_clock2
*308 user_irq[0]
*309 user_irq[1]
*310 user_irq[2]
*313 wb_clk_i
*314 wb_rst_i
*315 wbs_ack_o
*316 wbs_adr_i[0]
*317 wbs_adr_i[10]
*318 wbs_adr_i[11]
*319 wbs_adr_i[12]
*320 wbs_adr_i[13]
*321 wbs_adr_i[14]
*322 wbs_adr_i[15]
*323 wbs_adr_i[16]
*324 wbs_adr_i[17]
*325 wbs_adr_i[18]
*326 wbs_adr_i[19]
*327 wbs_adr_i[1]
*328 wbs_adr_i[20]
*329 wbs_adr_i[21]
*330 wbs_adr_i[22]
*331 wbs_adr_i[23]
*332 wbs_adr_i[24]
*333 wbs_adr_i[25]
*334 wbs_adr_i[26]
*335 wbs_adr_i[27]
*336 wbs_adr_i[28]
*337 wbs_adr_i[29]
*338 wbs_adr_i[2]
*339 wbs_adr_i[30]
*340 wbs_adr_i[31]
*341 wbs_adr_i[3]
*342 wbs_adr_i[4]
*343 wbs_adr_i[5]
*344 wbs_adr_i[6]
*345 wbs_adr_i[7]
*346 wbs_adr_i[8]
*347 wbs_adr_i[9]
*348 wbs_cyc_i
*349 wbs_dat_i[0]
*350 wbs_dat_i[10]
*351 wbs_dat_i[11]
*352 wbs_dat_i[12]
*353 wbs_dat_i[13]
*354 wbs_dat_i[14]
*355 wbs_dat_i[15]
*356 wbs_dat_i[16]
*357 wbs_dat_i[17]
*358 wbs_dat_i[18]
*359 wbs_dat_i[19]
*360 wbs_dat_i[1]
*361 wbs_dat_i[20]
*362 wbs_dat_i[21]
*363 wbs_dat_i[22]
*364 wbs_dat_i[23]
*365 wbs_dat_i[24]
*366 wbs_dat_i[25]
*367 wbs_dat_i[26]
*368 wbs_dat_i[27]
*369 wbs_dat_i[28]
*370 wbs_dat_i[29]
*371 wbs_dat_i[2]
*372 wbs_dat_i[30]
*373 wbs_dat_i[31]
*374 wbs_dat_i[3]
*375 wbs_dat_i[4]
*376 wbs_dat_i[5]
*377 wbs_dat_i[6]
*378 wbs_dat_i[7]
*379 wbs_dat_i[8]
*380 wbs_dat_i[9]
*381 wbs_dat_o[0]
*382 wbs_dat_o[10]
*383 wbs_dat_o[11]
*384 wbs_dat_o[12]
*385 wbs_dat_o[13]
*386 wbs_dat_o[14]
*387 wbs_dat_o[15]
*388 wbs_dat_o[16]
*389 wbs_dat_o[17]
*390 wbs_dat_o[18]
*391 wbs_dat_o[19]
*392 wbs_dat_o[1]
*393 wbs_dat_o[20]
*394 wbs_dat_o[21]
*395 wbs_dat_o[22]
*396 wbs_dat_o[23]
*397 wbs_dat_o[24]
*398 wbs_dat_o[25]
*399 wbs_dat_o[26]
*400 wbs_dat_o[27]
*401 wbs_dat_o[28]
*402 wbs_dat_o[29]
*403 wbs_dat_o[2]
*404 wbs_dat_o[30]
*405 wbs_dat_o[31]
*406 wbs_dat_o[3]
*407 wbs_dat_o[4]
*408 wbs_dat_o[5]
*409 wbs_dat_o[6]
*410 wbs_dat_o[7]
*411 wbs_dat_o[8]
*412 wbs_dat_o[9]
*413 wbs_sel_i[0]
*414 wbs_sel_i[1]
*415 wbs_sel_i[2]
*416 wbs_sel_i[3]
*417 wbs_stb_i
*418 wbs_we_i
*419 avali_logo
*420 wrapped_as2650

*PORTS
io_in[0] I
io_in[10] I
io_in[11] I
io_in[12] I
io_in[13] I
io_in[14] I
io_in[15] I
io_in[16] I
io_in[17] I
io_in[18] I
io_in[19] I
io_in[1] I
io_in[20] I
io_in[21] I
io_in[22] I
io_in[23] I
io_in[24] I
io_in[25] I
io_in[26] I
io_in[27] I
io_in[28] I
io_in[29] I
io_in[2] I
io_in[30] I
io_in[31] I
io_in[32] I
io_in[33] I
io_in[34] I
io_in[35] I
io_in[36] I
io_in[37] I
io_in[3] I
io_in[4] I
io_in[5] I
io_in[6] I
io_in[7] I
io_in[8] I
io_in[9] I
io_oeb[0] O
io_oeb[10] O
io_oeb[11] O
io_oeb[12] O
io_oeb[13] O
io_oeb[14] O
io_oeb[15] O
io_oeb[16] O
io_oeb[17] O
io_oeb[18] O
io_oeb[19] O
io_oeb[1] O
io_oeb[20] O
io_oeb[21] O
io_oeb[22] O
io_oeb[23] O
io_oeb[24] O
io_oeb[25] O
io_oeb[26] O
io_oeb[27] O
io_oeb[28] O
io_oeb[29] O
io_oeb[2] O
io_oeb[30] O
io_oeb[31] O
io_oeb[32] O
io_oeb[33] O
io_oeb[34] O
io_oeb[35] O
io_oeb[36] O
io_oeb[37] O
io_oeb[3] O
io_oeb[4] O
io_oeb[5] O
io_oeb[6] O
io_oeb[7] O
io_oeb[8] O
io_oeb[9] O
io_out[0] O
io_out[10] O
io_out[11] O
io_out[12] O
io_out[13] O
io_out[14] O
io_out[15] O
io_out[16] O
io_out[17] O
io_out[18] O
io_out[19] O
io_out[1] O
io_out[20] O
io_out[21] O
io_out[22] O
io_out[23] O
io_out[24] O
io_out[25] O
io_out[26] O
io_out[27] O
io_out[28] O
io_out[29] O
io_out[2] O
io_out[30] O
io_out[31] O
io_out[32] O
io_out[33] O
io_out[34] O
io_out[35] O
io_out[36] O
io_out[37] O
io_out[3] O
io_out[4] O
io_out[5] O
io_out[6] O
io_out[7] O
io_out[8] O
io_out[9] O
la_data_in[0] I
la_data_in[10] I
la_data_in[11] I
la_data_in[12] I
la_data_in[13] I
la_data_in[14] I
la_data_in[15] I
la_data_in[16] I
la_data_in[17] I
la_data_in[18] I
la_data_in[19] I
la_data_in[1] I
la_data_in[20] I
la_data_in[21] I
la_data_in[22] I
la_data_in[23] I
la_data_in[24] I
la_data_in[25] I
la_data_in[26] I
la_data_in[27] I
la_data_in[28] I
la_data_in[29] I
la_data_in[2] I
la_data_in[30] I
la_data_in[31] I
la_data_in[32] I
la_data_in[33] I
la_data_in[34] I
la_data_in[35] I
la_data_in[36] I
la_data_in[37] I
la_data_in[38] I
la_data_in[39] I
la_data_in[3] I
la_data_in[40] I
la_data_in[41] I
la_data_in[42] I
la_data_in[43] I
la_data_in[44] I
la_data_in[45] I
la_data_in[46] I
la_data_in[47] I
la_data_in[48] I
la_data_in[49] I
la_data_in[4] I
la_data_in[50] I
la_data_in[51] I
la_data_in[52] I
la_data_in[53] I
la_data_in[54] I
la_data_in[55] I
la_data_in[56] I
la_data_in[57] I
la_data_in[58] I
la_data_in[59] I
la_data_in[5] I
la_data_in[60] I
la_data_in[61] I
la_data_in[62] I
la_data_in[63] I
la_data_in[6] I
la_data_in[7] I
la_data_in[8] I
la_data_in[9] I
la_data_out[0] O
la_data_out[10] O
la_data_out[11] O
la_data_out[12] O
la_data_out[13] O
la_data_out[14] O
la_data_out[15] O
la_data_out[16] O
la_data_out[17] O
la_data_out[18] O
la_data_out[19] O
la_data_out[1] O
la_data_out[20] O
la_data_out[21] O
la_data_out[22] O
la_data_out[23] O
la_data_out[24] O
la_data_out[25] O
la_data_out[26] O
la_data_out[27] O
la_data_out[28] O
la_data_out[29] O
la_data_out[2] O
la_data_out[30] O
la_data_out[31] O
la_data_out[32] O
la_data_out[33] O
la_data_out[34] O
la_data_out[35] O
la_data_out[36] O
la_data_out[37] O
la_data_out[38] O
la_data_out[39] O
la_data_out[3] O
la_data_out[40] O
la_data_out[41] O
la_data_out[42] O
la_data_out[43] O
la_data_out[44] O
la_data_out[45] O
la_data_out[46] O
la_data_out[47] O
la_data_out[48] O
la_data_out[49] O
la_data_out[4] O
la_data_out[50] O
la_data_out[51] O
la_data_out[52] O
la_data_out[53] O
la_data_out[54] O
la_data_out[55] O
la_data_out[56] O
la_data_out[57] O
la_data_out[58] O
la_data_out[59] O
la_data_out[5] O
la_data_out[60] O
la_data_out[61] O
la_data_out[62] O
la_data_out[63] O
la_data_out[6] O
la_data_out[7] O
la_data_out[8] O
la_data_out[9] O
la_oenb[0] I
la_oenb[10] I
la_oenb[11] I
la_oenb[12] I
la_oenb[13] I
la_oenb[14] I
la_oenb[15] I
la_oenb[16] I
la_oenb[17] I
la_oenb[18] I
la_oenb[19] I
la_oenb[1] I
la_oenb[20] I
la_oenb[21] I
la_oenb[22] I
la_oenb[23] I
la_oenb[24] I
la_oenb[25] I
la_oenb[26] I
la_oenb[27] I
la_oenb[28] I
la_oenb[29] I
la_oenb[2] I
la_oenb[30] I
la_oenb[31] I
la_oenb[32] I
la_oenb[33] I
la_oenb[34] I
la_oenb[35] I
la_oenb[36] I
la_oenb[37] I
la_oenb[38] I
la_oenb[39] I
la_oenb[3] I
la_oenb[40] I
la_oenb[41] I
la_oenb[42] I
la_oenb[43] I
la_oenb[44] I
la_oenb[45] I
la_oenb[46] I
la_oenb[47] I
la_oenb[48] I
la_oenb[49] I
la_oenb[4] I
la_oenb[50] I
la_oenb[51] I
la_oenb[52] I
la_oenb[53] I
la_oenb[54] I
la_oenb[55] I
la_oenb[56] I
la_oenb[57] I
la_oenb[58] I
la_oenb[59] I
la_oenb[5] I
la_oenb[60] I
la_oenb[61] I
la_oenb[62] I
la_oenb[63] I
la_oenb[6] I
la_oenb[7] I
la_oenb[8] I
la_oenb[9] I
user_clock2 I
user_irq[0] O
user_irq[1] O
user_irq[2] O
wb_clk_i I
wb_rst_i I
wbs_ack_o O
wbs_adr_i[0] I
wbs_adr_i[10] I
wbs_adr_i[11] I
wbs_adr_i[12] I
wbs_adr_i[13] I
wbs_adr_i[14] I
wbs_adr_i[15] I
wbs_adr_i[16] I
wbs_adr_i[17] I
wbs_adr_i[18] I
wbs_adr_i[19] I
wbs_adr_i[1] I
wbs_adr_i[20] I
wbs_adr_i[21] I
wbs_adr_i[22] I
wbs_adr_i[23] I
wbs_adr_i[24] I
wbs_adr_i[25] I
wbs_adr_i[26] I
wbs_adr_i[27] I
wbs_adr_i[28] I
wbs_adr_i[29] I
wbs_adr_i[2] I
wbs_adr_i[30] I
wbs_adr_i[31] I
wbs_adr_i[3] I
wbs_adr_i[4] I
wbs_adr_i[5] I
wbs_adr_i[6] I
wbs_adr_i[7] I
wbs_adr_i[8] I
wbs_adr_i[9] I
wbs_cyc_i I
wbs_dat_i[0] I
wbs_dat_i[10] I
wbs_dat_i[11] I
wbs_dat_i[12] I
wbs_dat_i[13] I
wbs_dat_i[14] I
wbs_dat_i[15] I
wbs_dat_i[16] I
wbs_dat_i[17] I
wbs_dat_i[18] I
wbs_dat_i[19] I
wbs_dat_i[1] I
wbs_dat_i[20] I
wbs_dat_i[21] I
wbs_dat_i[22] I
wbs_dat_i[23] I
wbs_dat_i[24] I
wbs_dat_i[25] I
wbs_dat_i[26] I
wbs_dat_i[27] I
wbs_dat_i[28] I
wbs_dat_i[29] I
wbs_dat_i[2] I
wbs_dat_i[30] I
wbs_dat_i[31] I
wbs_dat_i[3] I
wbs_dat_i[4] I
wbs_dat_i[5] I
wbs_dat_i[6] I
wbs_dat_i[7] I
wbs_dat_i[8] I
wbs_dat_i[9] I
wbs_dat_o[0] O
wbs_dat_o[10] O
wbs_dat_o[11] O
wbs_dat_o[12] O
wbs_dat_o[13] O
wbs_dat_o[14] O
wbs_dat_o[15] O
wbs_dat_o[16] O
wbs_dat_o[17] O
wbs_dat_o[18] O
wbs_dat_o[19] O
wbs_dat_o[1] O
wbs_dat_o[20] O
wbs_dat_o[21] O
wbs_dat_o[22] O
wbs_dat_o[23] O
wbs_dat_o[24] O
wbs_dat_o[25] O
wbs_dat_o[26] O
wbs_dat_o[27] O
wbs_dat_o[28] O
wbs_dat_o[29] O
wbs_dat_o[2] O
wbs_dat_o[30] O
wbs_dat_o[31] O
wbs_dat_o[3] O
wbs_dat_o[4] O
wbs_dat_o[5] O
wbs_dat_o[6] O
wbs_dat_o[7] O
wbs_dat_o[8] O
wbs_dat_o[9] O
wbs_sel_i[0] I
wbs_sel_i[1] I
wbs_sel_i[2] I
wbs_sel_i[3] I
wbs_stb_i I
wbs_we_i I

*D_NET *1 0.460652
*CONN
*P io_in[0] I
*I *420:io_in[0] I *D wrapped_as2650
*CAP
1 io_in[0] 0.0631334
2 *420:io_in[0] 0.000335409
3 *1:13 0.00396019
4 *1:11 0.00362478
5 *1:9 0.0623781
6 *1:7 0.0623781
7 *1:5 0.0631334
8 *1:5 la_data_out[14] 0
9 *1:13 *12:13 0.0222785
10 *1:13 *23:13 0.00562619
11 *1:13 *25:13 0.0804551
12 *1:13 *28:13 0.0882365
13 *1:13 *32:13 0.00511215
*RES
1 io_in[0] *1:5 499.725 
2 *1:5 *1:7 4.5 
3 *1:7 *1:9 472.41 
4 *1:9 *1:11 4.5 
5 *1:11 *1:13 320.85 
6 *1:13 *420:io_in[0] 6.345 
*END

*D_NET *2 0.233843
*CONN
*P io_in[10] I
*I *420:io_in[10] I *D wrapped_as2650
*CAP
1 io_in[10] 0.0946515
2 *420:io_in[10] 0.0222699
3 *2:7 0.0222699
4 *2:5 0.0946515
*RES
1 io_in[10] *2:5 755.685 
2 *2:5 *2:7 4.5 
3 *2:7 *420:io_in[10] 166.725 
*END

*D_NET *3 0.248666
*CONN
*P io_in[11] I
*I *420:io_in[11] I *D wrapped_as2650
*CAP
1 io_in[11] 0.00192907
2 *420:io_in[11] 0.00326932
3 *3:13 0.0951672
4 *3:11 0.0918979
5 *3:9 0.0272369
6 *3:7 0.0291659
7 *3:9 *38:11 0
*RES
1 io_in[11] *3:7 18.225 
2 *3:7 *3:9 208.89 
3 *3:9 *3:11 4.5 
4 *3:11 *3:13 735.57 
5 *3:13 *420:io_in[11] 26.145 
*END

*D_NET *4 0.263524
*CONN
*P io_in[12] I
*I *420:io_in[12] I *D wrapped_as2650
*CAP
1 io_in[12] 0.092834
2 *420:io_in[12] 0.0389282
3 *4:7 0.0389282
4 *4:5 0.092834
*RES
1 io_in[12] *4:5 742.725 
2 *4:5 *4:7 4.5 
3 *4:7 *420:io_in[12] 294.165 
*END

*D_NET *5 0.278309
*CONN
*P io_in[13] I
*I *420:io_in[13] I *D wrapped_as2650
*CAP
1 io_in[13] 0.0919889
2 *420:io_in[13] 0.0471656
3 *5:7 0.0471656
4 *5:5 0.0919889
5 *420:io_in[13] *90:17 0
*RES
1 io_in[13] *5:5 736.245 
2 *5:5 *5:7 4.5 
3 *5:7 *420:io_in[13] 357.885 
*END

*D_NET *6 0.293912
*CONN
*P io_in[14] I
*I *420:io_in[14] I *D wrapped_as2650
*CAP
1 io_in[14] 0.00225799
2 *420:io_in[14] 0.0307964
3 *6:15 0.0307964
4 *6:13 0.0892773
5 *6:11 0.0892773
6 *6:9 0.0246242
7 *6:7 0.0268822
*RES
1 io_in[14] *6:7 18.225 
2 *6:7 *6:9 189.45 
3 *6:9 *6:11 4.5 
4 *6:11 *6:13 716.13 
5 *6:13 *6:15 4.5 
6 *6:15 *420:io_in[14] 232.245 
*END

*D_NET *7 0.565801
*CONN
*P io_in[15] I
*I *420:io_in[15] I *D wrapped_as2650
*CAP
1 io_in[15] 0.0604583
2 *420:io_in[15] 0.00176336
3 *7:9 0.0316288
4 *7:7 0.0298655
5 *7:5 0.0604583
6 *7:9 *45:13 0.254878
7 *7:9 *48:13 0.126749
*RES
1 io_in[15] *7:5 464.445 
2 *7:5 *7:7 4.5 
3 *7:7 *7:9 705.69 
4 *7:9 *420:io_in[15] 15.525 
*END

*D_NET *8 0.272746
*CONN
*P io_in[16] I
*I *420:io_in[16] I *D wrapped_as2650
*CAP
1 io_in[16] 0.0576253
2 *420:io_in[16] 0.00469204
3 *8:9 0.0787475
4 *8:7 0.0740555
5 *8:5 0.0576253
*RES
1 io_in[16] *8:5 443.025 
2 *8:5 *8:7 4.5 
3 *8:7 *8:9 592.83 
4 *8:9 *420:io_in[16] 36.945 
*END

*D_NET *9 0.244695
*CONN
*P io_in[17] I
*I *420:io_in[17] I *D wrapped_as2650
*CAP
1 io_in[17] 0.0530449
2 *420:io_in[17] 0.00932034
3 *9:11 0.00932034
4 *9:9 0.0599825
5 *9:7 0.0599825
6 *9:5 0.0530449
*RES
1 io_in[17] *9:5 407.925 
2 *9:5 *9:7 4.5 
3 *9:7 *9:9 479.97 
4 *9:9 *9:11 4.5 
5 *9:11 *420:io_in[17] 67.545 
*END

*D_NET *10 0.371786
*CONN
*P io_in[18] I
*I *420:io_in[18] I *D wrapped_as2650
*CAP
1 io_in[18] 0.0601613
2 *420:io_in[18] 0.00215612
3 *10:9 0.0140089
4 *10:7 0.0118527
5 *10:5 0.0601613
6 *10:9 *44:10 0.147301
7 *10:9 *49:13 0.0761444
*RES
1 io_in[18] *10:5 461.745 
2 *10:5 *10:7 4.5 
3 *10:7 *10:9 367.11 
4 *10:9 *420:io_in[18] 18.225 
*END

*D_NET *11 0.215766
*CONN
*P io_in[19] I
*I *420:io_in[19] I *D wrapped_as2650
*CAP
1 io_in[19] 0.0609008
2 *420:io_in[19] 0.0014485
3 *11:9 0.0184053
4 *11:7 0.0169568
5 *11:5 0.0609008
6 *11:9 *19:13 0.018226
7 *11:9 *46:13 0.0389283
*RES
1 io_in[19] *11:5 466.785 
2 *11:5 *11:7 4.5 
3 *11:7 *11:9 254.25 
4 *11:9 *420:io_in[19] 13.185 
*END

*D_NET *12 0.375024
*CONN
*P io_in[1] I
*I *420:io_in[1] I *D wrapped_as2650
*CAP
1 io_in[1] 0.0018783
2 *420:io_in[1] 0.000273464
3 *12:13 0.0749063
4 *12:11 0.0746328
5 *12:9 0.053107
6 *12:7 0.0549853
7 *12:13 *25:13 0.0778313
8 *12:13 *32:13 0
9 *12:13 *84:13 0
10 *12:13 *85:13 0
11 *12:13 *86:13 0.00546764
12 *12:13 *87:13 0.00838532
13 *12:13 *90:13 0.00127809
14 *1:13 *12:13 0.0222785
*RES
1 io_in[1] *12:7 18.225 
2 *12:7 *12:9 407.97 
3 *12:9 *12:11 4.5 
4 *12:11 *12:13 800.37 
5 *12:13 *420:io_in[1] 5.985 
*END

*D_NET *13 0.160147
*CONN
*P io_in[20] I
*I *420:io_in[20] I *D wrapped_as2650
*CAP
1 io_in[20] 0.00143623
2 *420:io_in[20] 0.0610851
3 *13:11 0.0610851
4 *13:9 0.0175522
5 *13:7 0.0189884
*RES
1 io_in[20] *13:7 15.525 
2 *13:7 *13:9 141.39 
3 *13:9 *13:11 4.5 
4 *13:11 *420:io_in[20] 464.445 
*END

*D_NET *14 0.132006
*CONN
*P io_in[21] I
*I *420:io_in[21] I *D wrapped_as2650
*CAP
1 io_in[21] 0.0570597
2 *420:io_in[21] 0.00544566
3 *14:11 0.00894318
4 *14:5 0.0605573
5 *14:11 *37:5 0
*RES
1 io_in[21] *14:5 437.625 
2 *14:5 *14:11 37.53 
3 *14:11 *420:io_in[21] 37.845 
*END

*D_NET *15 0.146422
*CONN
*P io_in[22] I
*I *420:io_in[22] I *D wrapped_as2650
*CAP
1 io_in[22] 0.0481103
2 *420:io_in[22] 0.0143153
3 *15:11 0.0143153
4 *15:9 0.0107855
5 *15:7 0.0107855
6 *15:5 0.0481103
*RES
1 io_in[22] *15:5 370.125 
2 *15:5 *15:7 4.5 
3 *15:7 *15:9 84.51 
4 *15:9 *15:11 4.5 
5 *15:11 *420:io_in[22] 105.345 
*END

*D_NET *16 0.220393
*CONN
*P io_in[23] I
*I *420:io_in[23] I *D wrapped_as2650
*CAP
1 io_in[23] 0.0578163
2 *420:io_in[23] 0.00438612
3 *16:9 0.0193284
4 *16:7 0.0149423
5 *16:5 0.0578163
6 *16:9 *81:13 0.0661041
*RES
1 io_in[23] *16:5 445.545 
2 *16:5 *16:7 4.5 
3 *16:7 *16:9 197.37 
4 *16:9 *420:io_in[23] 34.425 
*END

*D_NET *17 0.194465
*CONN
*P io_in[24] I
*I *420:io_in[24] I *D wrapped_as2650
*CAP
1 io_in[24] 0.0365241
2 *420:io_in[24] 0.0607083
3 *17:7 0.0607083
4 *17:5 0.0365241
*RES
1 io_in[24] *17:5 291.825 
2 *17:5 *17:7 4.5 
3 *17:7 *420:io_in[24] 461.745 
*END

*D_NET *18 0.179222
*CONN
*P io_in[25] I
*I *420:io_in[25] I *D wrapped_as2650
*CAP
1 io_in[25] 0.00150089
2 *420:io_in[25] 0.00899141
3 *18:15 0.00899141
4 *18:13 0.0363214
5 *18:11 0.0363214
6 *18:9 0.0427973
7 *18:7 0.0442981
8 *18:9 *21:11 0
*RES
1 io_in[25] *18:7 16.065 
2 *18:7 *18:9 328.95 
3 *18:9 *18:11 4.5 
4 *18:11 *18:13 286.83 
5 *18:13 *18:15 4.5 
6 *18:15 *420:io_in[25] 64.845 
*END

*D_NET *19 0.254432
*CONN
*P io_in[26] I
*I *420:io_in[26] I *D wrapped_as2650
*CAP
1 io_in[26] 0.00427702
2 *420:io_in[26] 0.00157787
3 *19:13 0.0159076
4 *19:11 0.0143297
5 *19:9 0.041244
6 *19:7 0.045521
7 *19:13 *46:13 0.0716258
8 *19:13 *52:13 0.0417226
9 *11:9 *19:13 0.018226
*RES
1 io_in[26] *19:7 37.665 
2 *19:7 *19:9 317.25 
3 *19:9 *19:11 4.5 
4 *19:11 *19:13 271.71 
5 *19:13 *420:io_in[26] 13.005 
*END

*D_NET *20 0.182261
*CONN
*P io_in[27] I
*I *420:io_in[27] I *D wrapped_as2650
*CAP
1 io_in[27] 0.0488297
2 *420:io_in[27] 0.0423009
3 *20:7 0.0423009
4 *20:5 0.0488297
*RES
1 io_in[27] *20:5 311.265 
2 *20:5 *20:7 4.5 
3 *20:7 *420:io_in[27] 257.625 
*END

*D_NET *21 0.184852
*CONN
*P io_in[28] I
*I *420:io_in[28] I *D wrapped_as2650
*CAP
1 io_in[28] 0.00209639
2 *420:io_in[28] 0.0248263
3 *21:15 0.0248263
4 *21:13 0.0270931
5 *21:11 0.0291895
6 *21:13 *78:13 0.0768209
7 *18:9 *21:11 0
*RES
1 io_in[28] *21:11 22.455 
2 *21:11 *21:13 307.53 
3 *21:13 *21:15 4.5 
4 *21:15 *420:io_in[28] 186.525 
*END

*D_NET *22 0.114908
*CONN
*P io_in[29] I
*I *420:io_in[29] I *D wrapped_as2650
*CAP
1 io_in[29] 0.0411057
2 *420:io_in[29] 0.0163481
3 *22:7 0.0163481
4 *22:5 0.0411057
*RES
1 io_in[29] *22:5 324.225 
2 *22:5 *22:7 4.5 
3 *22:7 *420:io_in[29] 121.545 
*END

*D_NET *23 0.413695
*CONN
*P io_in[2] I
*I *420:io_in[2] I *D wrapped_as2650
*CAP
1 io_in[2] 0.0720934
2 *420:io_in[2] 0.000429272
3 *23:13 0.00187647
4 *23:11 0.0014472
5 *23:9 0.0460414
6 *23:7 0.0460414
7 *23:5 0.0720934
8 *23:9 *179:11 0
9 *23:9 *212:15 0
10 *23:9 *223:15 0
11 *23:9 *239:15 0
12 *23:9 *310:11 0
13 *23:13 *27:13 0.0804551
14 *23:13 *28:13 0.0829992
15 *23:13 *32:13 0.0045916
16 *1:13 *23:13 0.00562619
*RES
1 io_in[2] *23:5 569.925 
2 *23:5 *23:7 4.5 
3 *23:7 *23:9 345.33 
4 *23:9 *23:11 4.5 
5 *23:11 *23:13 237.69 
6 *23:13 *420:io_in[2] 6.705 
*END

*D_NET *24 0.0989071
*CONN
*P io_in[30] I
*I *420:io_in[30] I *D wrapped_as2650
*CAP
1 io_in[30] 0.0420017
2 *420:io_in[30] 0.00745184
3 *24:7 0.00745184
4 *24:5 0.0420017
*RES
1 io_in[30] *24:5 330.705 
2 *24:5 *24:7 4.5 
3 *24:7 *420:io_in[30] 53.505 
*END

*D_NET *25 0.203047
*CONN
*P io_in[31] I
*I *420:io_in[31] I *D wrapped_as2650
*CAP
1 io_in[31] 0.00350837
2 *420:io_in[31] 0.000280498
3 *25:13 0.0152921
4 *25:11 0.01852
5 *25:13 *28:13 0.00580588
6 *25:13 *84:13 0
7 *25:13 *86:13 0.00135163
8 *25:13 *90:13 1.89688e-06
9 *1:13 *25:13 0.0804551
10 *12:13 *25:13 0.0778313
*RES
1 io_in[31] *25:11 35.235 
2 *25:11 *25:13 326.97 
3 *25:13 *420:io_in[31] 6.165 
*END

*D_NET *26 0.215913
*CONN
*P io_in[32] I
*I *420:io_in[32] I *D wrapped_as2650
*CAP
1 io_in[32] 0.0153808
2 *420:io_in[32] 0.000459285
3 *26:13 0.00575132
4 *26:11 0.00529203
5 *26:9 0.0102906
6 *26:7 0.0102906
7 *26:5 0.0153808
8 *26:9 *47:9 0
9 *26:9 *84:9 0.00231227
10 *26:13 *27:13 0.0896167
11 *26:13 *30:13 0
12 *26:13 *32:13 0.0611391
13 *26:13 *33:17 0
*RES
1 io_in[32] *26:5 119.565 
2 *26:5 *26:7 4.5 
3 *26:7 *26:9 85.23 
4 *26:9 *26:11 4.5 
5 *26:11 *26:13 224.19 
6 *26:13 *420:io_in[32] 7.065 
*END

*D_NET *27 0.251145
*CONN
*P io_in[33] I
*I *420:io_in[33] I *D wrapped_as2650
*CAP
1 io_in[33] 0.014938
2 *420:io_in[33] 0.000420333
3 *27:13 0.00164538
4 *27:11 0.00122505
5 *27:9 0.0203995
6 *27:7 0.0203995
7 *27:5 0.014938
8 *27:13 *28:13 0.00588521
9 *27:13 *32:13 0.00122249
10 *23:13 *27:13 0.0804551
11 *26:13 *27:13 0.0896167
*RES
1 io_in[33] *27:5 116.865 
2 *27:5 *27:7 4.5 
3 *27:7 *27:9 153.09 
4 *27:9 *27:11 4.5 
5 *27:11 *27:13 233.37 
6 *27:13 *420:io_in[33] 6.885 
*END

*D_NET *28 0.273196
*CONN
*P io_in[34] I
*I *420:io_in[34] I *D wrapped_as2650
*CAP
1 io_in[34] 0.0131686
2 *420:io_in[34] 0.000342429
3 *28:13 0.00270222
4 *28:11 0.00235979
5 *28:9 0.0292637
6 *28:7 0.0292637
7 *28:5 0.0131686
8 *1:13 *28:13 0.0882365
9 *23:13 *28:13 0.0829992
10 *25:13 *28:13 0.00580588
11 *27:13 *28:13 0.00588521
*RES
1 io_in[34] *28:5 103.365 
2 *28:5 *28:7 4.5 
3 *28:7 *28:9 220.77 
4 *28:9 *28:11 4.5 
5 *28:11 *28:13 253.35 
6 *28:13 *420:io_in[34] 6.525 
*END

*D_NET *29 0.316879
*CONN
*P io_in[35] I
*I *420:io_in[35] I *D wrapped_as2650
*CAP
1 io_in[35] 0.0121809
2 *420:io_in[35] 0.000767078
3 *29:13 0.00604203
4 *29:11 0.00527495
5 *29:9 0.0302041
6 *29:7 0.0302041
7 *29:5 0.0121809
8 *29:9 *53:9 0.0172683
9 *29:9 *91:9 0.0168572
10 *29:13 *31:13 0.106969
11 *29:13 *32:21 0.00108161
12 *29:13 *34:13 0.0778487
*RES
1 io_in[35] *29:5 95.265 
2 *29:5 *29:7 4.5 
3 *29:7 *29:9 291.51 
4 *29:9 *29:11 4.5 
5 *29:11 *29:13 267.93 
6 *29:13 *420:io_in[35] 9.225 
*END

*D_NET *30 0.323304
*CONN
*P io_in[36] I
*I *420:io_in[36] I *D wrapped_as2650
*CAP
1 io_in[36] 0.0026245
2 *420:io_in[36] 0.000689174
3 *30:13 0.0153363
4 *30:11 0.0146471
5 *30:9 0.046853
6 *30:7 0.0494775
7 *30:13 *31:13 0.110666
8 *30:13 *33:17 0.0830106
9 *26:13 *30:13 0
*RES
1 io_in[36] *30:7 24.165 
2 *30:7 *30:9 359.19 
3 *30:9 *30:11 4.5 
4 *30:11 *30:13 350.01 
5 *30:13 *420:io_in[36] 8.865 
*END

*D_NET *31 0.361143
*CONN
*P io_in[37] I
*I *420:io_in[37] I *D wrapped_as2650
*CAP
1 io_in[37] 0.0118067
2 *420:io_in[37] 0.000712153
3 *31:13 0.00204188
4 *31:11 0.00132973
5 *31:9 0.0560664
6 *31:7 0.0560664
7 *31:5 0.0118067
8 *31:5 *392:17 0
9 *31:13 *33:17 0.00122249
10 *31:13 *34:13 0.00245552
11 *29:13 *31:13 0.106969
12 *30:13 *31:13 0.110666
*RES
1 io_in[37] *31:5 92.565 
2 *31:5 *31:7 4.5 
3 *31:7 *31:9 427.41 
4 *31:9 *31:11 4.5 
5 *31:11 *31:13 283.59 
6 *31:13 *420:io_in[37] 9.045 
*END

*D_NET *32 0.337916
*CONN
*P io_in[3] I
*I *420:io_in[3] I *D wrapped_as2650
*CAP
1 io_in[3] 0.00112783
2 *420:io_in[3] 0.000938874
3 *32:21 0.0042217
4 *32:13 0.0843535
5 *32:11 0.0810707
6 *32:9 0.036716
7 *32:7 0.0378439
8 *32:7 *61:10 1.80191e-05
9 *32:9 io_oeb[4] 0.00166792
10 *32:9 *35:11 0.000164319
11 *32:9 *73:17 0.00378925
12 *32:9 *99:14 0.00699554
13 *32:13 *33:17 0
14 *32:21 *34:13 0.000837965
15 *32:21 *35:21 0.00122249
16 *32:21 *36:13 0.00380064
17 *1:13 *32:13 0.00511215
18 *12:13 *32:13 0
19 *23:13 *32:13 0.0045916
20 *26:13 *32:13 0.0611391
21 *27:13 *32:13 0.00122249
22 *29:13 *32:21 0.00108161
*RES
1 io_in[3] *32:7 12.825 
2 *32:7 *32:9 281.79 
3 *32:9 *32:11 4.5 
4 *32:11 *32:13 757.53 
5 *32:13 *32:21 47.16 
6 *32:21 *420:io_in[3] 9.945 
*END

*D_NET *33 0.317262
*CONN
*P io_in[4] I
*I *420:io_in[4] I *D wrapped_as2650
*CAP
1 io_in[4] 0.00286662
2 *420:io_in[4] 0.000798629
3 *33:17 0.0843235
4 *33:15 0.0835249
5 *33:13 0.0285527
6 *33:11 0.0314193
7 *33:13 user_irq[2] 0
8 *33:17 *34:13 0.00125637
9 *33:17 *35:21 0.000197682
10 *33:17 *36:13 8.88307e-05
11 *26:13 *33:17 0
12 *30:13 *33:17 0.0830106
13 *31:13 *33:17 0.00122249
14 *32:13 *33:17 0
*RES
1 io_in[4] *33:11 21.825 
2 *33:11 *33:13 218.79 
3 *33:13 *33:15 4.5 
4 *33:15 *33:17 778.23 
5 *33:17 *420:io_in[4] 8.685 
*END

*D_NET *34 0.359228
*CONN
*P io_in[5] I
*I *420:io_in[5] I *D wrapped_as2650
*CAP
1 io_in[5] 0.0695239
2 *420:io_in[5] 0.000885868
3 *34:13 0.00195354
4 *34:11 0.00106767
5 *34:9 0.0213127
6 *34:7 0.0213127
7 *34:5 0.0695239
8 *34:5 *184:5 0.0053006
9 *34:9 *310:11 0
10 *34:13 *35:21 0.0859489
11 *29:13 *34:13 0.0778487
12 *31:13 *34:13 0.00245552
13 *32:21 *34:13 0.000837965
14 *33:17 *34:13 0.00125637
*RES
1 io_in[5] *34:5 567.225 
2 *34:5 *34:7 4.5 
3 *34:7 *34:9 156.87 
4 *34:9 *34:11 4.5 
5 *34:11 *34:13 220.95 
6 *34:13 *420:io_in[5] 9.405 
*END

*D_NET *35 0.342515
*CONN
*P io_in[6] I
*I *420:io_in[6] I *D wrapped_as2650
*CAP
1 io_in[6] 0.0013453
2 *420:io_in[6] 0.00092482
3 *35:21 0.00167046
4 *35:19 0.000745636
5 *35:17 0.0124752
6 *35:15 0.0124752
7 *35:13 0.0697857
8 *35:11 0.071131
9 *35:13 *208:5 0
10 *35:13 *209:5 0
11 *35:21 *36:13 0.0844286
12 *32:9 *35:11 0.000164319
13 *32:21 *35:21 0.00122249
14 *33:17 *35:21 0.000197682
15 *34:13 *35:21 0.0859489
*RES
1 io_in[6] *35:11 19.395 
2 *35:11 *35:13 555.75 
3 *35:13 *35:15 4.5 
4 *35:15 *35:17 91.53 
5 *35:17 *35:19 4.5 
6 *35:19 *35:21 217.17 
7 *35:21 *420:io_in[6] 9.585 
*END

*D_NET *36 0.265901
*CONN
*P io_in[7] I
*I *420:io_in[7] I *D wrapped_as2650
*CAP
1 io_in[7] 0.0700556
2 *420:io_in[7] 0.000963772
3 *36:13 0.0142938
4 *36:11 0.0174766
5 *36:5 0.0742022
6 *36:5 *232:9 0.000591474
7 *32:21 *36:13 0.00380064
8 *33:17 *36:13 8.88307e-05
9 *35:21 *36:13 0.0844286
*RES
1 io_in[7] *36:5 561.825 
2 *36:5 *36:11 38.79 
3 *36:11 *36:13 213.39 
4 *36:13 *420:io_in[7] 9.765 
*END

*D_NET *37 0.203922
*CONN
*P io_in[8] I
*I *420:io_in[8] I *D wrapped_as2650
*CAP
1 io_in[8] 0.0963315
2 *420:io_in[8] 0.0056296
3 *37:5 0.101961
4 *14:11 *37:5 0
*RES
1 io_in[8] *37:5 768.645 
2 *37:5 *420:io_in[8] 43.785 
*END

*D_NET *38 0.219648
*CONN
*P io_in[9] I
*I *420:io_in[9] I *D wrapped_as2650
*CAP
1 io_in[9] 0.00251277
2 *420:io_in[9] 0.0135559
3 *38:15 0.0135559
4 *38:13 0.0937552
5 *38:11 0.096268
6 *3:9 *38:11 0
*RES
1 io_in[9] *38:11 24.615 
2 *38:11 *38:13 749.79 
3 *38:13 *38:15 4.5 
4 *38:15 *420:io_in[9] 99.945 
*END

*D_NET *39 0.390954
*CONN
*P io_oeb[0] O
*I *420:io_oeb[0] O *D wrapped_as2650
*CAP
1 io_oeb[0] 0.105962
2 *420:io_oeb[0] 0.000311765
3 *39:11 0.105962
4 *39:9 0.0209602
5 *39:7 0.021272
6 io_oeb[0] *229:13 0
7 io_oeb[0] *382:17 0
8 io_oeb[0] *389:9 0
9 io_oeb[0] *407:9 0
10 *39:9 *50:9 0.108225
11 *39:9 *78:9 0.0282612
*RES
1 *420:io_oeb[0] *39:7 6.705 
2 *39:7 *39:9 332.91 
3 *39:9 *39:11 4.5 
4 *39:11 io_oeb[0] 830.745 
*END

*D_NET *40 0.378759
*CONN
*P io_oeb[10] O
*I *420:io_oeb[10] O *D wrapped_as2650
*CAP
1 io_oeb[10] 0.103589
2 *420:io_oeb[10] 0
3 *40:8 0.103589
4 *40:6 0.0136689
5 *40:4 0.0136689
6 *40:6 *41:6 0.111224
7 *40:6 *42:6 0.00158309
8 *40:6 *44:6 0.000664953
9 *40:6 *45:9 0.00271037
10 *40:6 *51:9 0.00014109
11 *40:6 *112:6 0.0279184
*RES
1 *420:io_oeb[10] *40:4 4.5 
2 *40:4 *40:6 279.27 
3 *40:6 *40:8 4.5 
4 *40:8 io_oeb[10] 828.405 
*END

*D_NET *41 0.375446
*CONN
*P io_oeb[11] O
*I *420:io_oeb[11] O *D wrapped_as2650
*CAP
1 io_oeb[11] 0.103585
2 *420:io_oeb[11] 0
3 *41:8 0.103585
4 *41:6 0.0257785
5 *41:4 0.0257785
6 *41:6 *85:9 0.00549538
7 *40:6 *41:6 0.111224
*RES