*SPEF "ieee 1481-1999"
*DESIGN "user_project_wrapper"
*DATE "11:11:11 Fri 11 11, 1111"
*VENDOR "OpenRCX"
*PROGRAM "Parallel Extraction"
*VERSION "1.0"
*DESIGN_FLOW "NAME_SCOPE LOCAL" "PIN_CAP NONE"
*DIVIDER /
*DELIMITER :
*BUS_DELIMITER []
*T_UNIT 1 NS
*C_UNIT 1 PF
*R_UNIT 1 OHM
*L_UNIT 1 HENRY

*NAME_MAP
*1 io_in[0]
*2 io_in[10]
*3 io_in[11]
*4 io_in[12]
*5 io_in[13]
*6 io_in[14]
*7 io_in[15]
*8 io_in[16]
*9 io_in[17]
*10 io_in[18]
*11 io_in[19]
*12 io_in[1]
*13 io_in[20]
*14 io_in[21]
*15 io_in[22]
*16 io_in[23]
*17 io_in[24]
*18 io_in[25]
*19 io_in[26]
*20 io_in[27]
*21 io_in[28]
*22 io_in[29]
*23 io_in[2]
*24 io_in[30]
*25 io_in[31]
*26 io_in[32]
*27 io_in[33]
*28 io_in[34]
*29 io_in[35]
*30 io_in[36]
*31 io_in[37]
*32 io_in[3]
*33 io_in[4]
*34 io_in[5]
*35 io_in[6]
*36 io_in[7]
*37 io_in[8]
*38 io_in[9]
*39 io_oeb[0]
*40 io_oeb[10]
*41 io_oeb[11]
*42 io_oeb[12]
*43 io_oeb[13]
*44 io_oeb[14]
*45 io_oeb[15]
*46 io_oeb[16]
*47 io_oeb[17]
*48 io_oeb[18]
*49 io_oeb[19]
*50 io_oeb[1]
*51 io_oeb[20]
*52 io_oeb[21]
*53 io_oeb[22]
*54 io_oeb[23]
*55 io_oeb[24]
*56 io_oeb[25]
*57 io_oeb[26]
*58 io_oeb[27]
*59 io_oeb[28]
*60 io_oeb[29]
*61 io_oeb[2]
*62 io_oeb[30]
*63 io_oeb[31]
*64 io_oeb[32]
*65 io_oeb[33]
*66 io_oeb[34]
*67 io_oeb[35]
*68 io_oeb[36]
*69 io_oeb[37]
*70 io_oeb[3]
*71 io_oeb[4]
*72 io_oeb[5]
*73 io_oeb[6]
*74 io_oeb[7]
*75 io_oeb[8]
*76 io_oeb[9]
*77 io_out[0]
*78 io_out[10]
*79 io_out[11]
*80 io_out[12]
*81 io_out[13]
*82 io_out[14]
*83 io_out[15]
*84 io_out[16]
*85 io_out[17]
*86 io_out[18]
*87 io_out[19]
*88 io_out[1]
*89 io_out[20]
*90 io_out[21]
*91 io_out[22]
*92 io_out[23]
*93 io_out[24]
*94 io_out[25]
*95 io_out[26]
*96 io_out[27]
*97 io_out[28]
*98 io_out[29]
*99 io_out[2]
*100 io_out[30]
*101 io_out[31]
*102 io_out[32]
*103 io_out[33]
*104 io_out[34]
*105 io_out[35]
*106 io_out[36]
*107 io_out[37]
*108 io_out[3]
*109 io_out[4]
*110 io_out[5]
*111 io_out[6]
*112 io_out[7]
*113 io_out[8]
*114 io_out[9]
*115 la_data_in[0]
*116 la_data_in[10]
*117 la_data_in[11]
*118 la_data_in[12]
*119 la_data_in[13]
*120 la_data_in[14]
*121 la_data_in[15]
*122 la_data_in[16]
*123 la_data_in[17]
*124 la_data_in[18]
*125 la_data_in[19]
*126 la_data_in[1]
*127 la_data_in[20]
*128 la_data_in[21]
*129 la_data_in[22]
*130 la_data_in[23]
*131 la_data_in[24]
*132 la_data_in[25]
*133 la_data_in[26]
*134 la_data_in[27]
*135 la_data_in[28]
*136 la_data_in[29]
*137 la_data_in[2]
*138 la_data_in[30]
*139 la_data_in[31]
*140 la_data_in[32]
*141 la_data_in[33]
*142 la_data_in[34]
*143 la_data_in[35]
*144 la_data_in[36]
*145 la_data_in[37]
*146 la_data_in[38]
*147 la_data_in[39]
*148 la_data_in[3]
*149 la_data_in[40]
*150 la_data_in[41]
*151 la_data_in[42]
*152 la_data_in[43]
*153 la_data_in[44]
*154 la_data_in[45]
*155 la_data_in[46]
*156 la_data_in[47]
*157 la_data_in[48]
*158 la_data_in[49]
*159 la_data_in[4]
*160 la_data_in[50]
*161 la_data_in[51]
*162 la_data_in[52]
*163 la_data_in[53]
*164 la_data_in[54]
*165 la_data_in[55]
*166 la_data_in[56]
*167 la_data_in[57]
*168 la_data_in[58]
*169 la_data_in[59]
*170 la_data_in[5]
*171 la_data_in[60]
*172 la_data_in[61]
*173 la_data_in[62]
*174 la_data_in[63]
*175 la_data_in[6]
*176 la_data_in[7]
*177 la_data_in[8]
*178 la_data_in[9]
*179 la_data_out[0]
*180 la_data_out[10]
*181 la_data_out[11]
*182 la_data_out[12]
*183 la_data_out[13]
*184 la_data_out[14]
*185 la_data_out[15]
*186 la_data_out[16]
*187 la_data_out[17]
*188 la_data_out[18]
*189 la_data_out[19]
*190 la_data_out[1]
*191 la_data_out[20]
*192 la_data_out[21]
*193 la_data_out[22]
*194 la_data_out[23]
*195 la_data_out[24]
*196 la_data_out[25]
*197 la_data_out[26]
*198 la_data_out[27]
*199 la_data_out[28]
*200 la_data_out[29]
*201 la_data_out[2]
*202 la_data_out[30]
*203 la_data_out[31]
*204 la_data_out[32]
*205 la_data_out[33]
*206 la_data_out[34]
*207 la_data_out[35]
*208 la_data_out[36]
*209 la_data_out[37]
*210 la_data_out[38]
*211 la_data_out[39]
*212 la_data_out[3]
*213 la_data_out[40]
*214 la_data_out[41]
*215 la_data_out[42]
*216 la_data_out[43]
*217 la_data_out[44]
*218 la_data_out[45]
*219 la_data_out[46]
*220 la_data_out[47]
*221 la_data_out[48]
*222 la_data_out[49]
*223 la_data_out[4]
*224 la_data_out[50]
*225 la_data_out[51]
*226 la_data_out[52]
*227 la_data_out[53]
*228 la_data_out[54]
*229 la_data_out[55]
*230 la_data_out[56]
*231 la_data_out[57]
*232 la_data_out[58]
*233 la_data_out[59]
*234 la_data_out[5]
*235 la_data_out[60]
*236 la_data_out[61]
*237 la_data_out[62]
*238 la_data_out[63]
*239 la_data_out[6]
*240 la_data_out[7]
*241 la_data_out[8]
*242 la_data_out[9]
*243 la_oenb[0]
*244 la_oenb[10]
*245 la_oenb[11]
*246 la_oenb[12]
*247 la_oenb[13]
*248 la_oenb[14]
*249 la_oenb[15]
*250 la_oenb[16]
*251 la_oenb[17]
*252 la_oenb[18]
*253 la_oenb[19]
*254 la_oenb[1]
*255 la_oenb[20]
*256 la_oenb[21]
*257 la_oenb[22]
*258 la_oenb[23]
*259 la_oenb[24]
*260 la_oenb[25]
*261 la_oenb[26]
*262 la_oenb[27]
*263 la_oenb[28]
*264 la_oenb[29]
*265 la_oenb[2]
*266 la_oenb[30]
*267 la_oenb[31]
*268 la_oenb[32]
*269 la_oenb[33]
*270 la_oenb[34]
*271 la_oenb[35]
*272 la_oenb[36]
*273 la_oenb[37]
*274 la_oenb[38]
*275 la_oenb[39]
*276 la_oenb[3]
*277 la_oenb[40]
*278 la_oenb[41]
*279 la_oenb[42]
*280 la_oenb[43]
*281 la_oenb[44]
*282 la_oenb[45]
*283 la_oenb[46]
*284 la_oenb[47]
*285 la_oenb[48]
*286 la_oenb[49]
*287 la_oenb[4]
*288 la_oenb[50]
*289 la_oenb[51]
*290 la_oenb[52]
*291 la_oenb[53]
*292 la_oenb[54]
*293 la_oenb[55]
*294 la_oenb[56]
*295 la_oenb[57]
*296 la_oenb[58]
*297 la_oenb[59]
*298 la_oenb[5]
*299 la_oenb[60]
*300 la_oenb[61]
*301 la_oenb[62]
*302 la_oenb[63]
*303 la_oenb[6]
*304 la_oenb[7]
*305 la_oenb[8]
*306 la_oenb[9]
*307 user_clock2
*308 user_irq[0]
*309 user_irq[1]
*310 user_irq[2]
*313 wb_clk_i
*314 wb_rst_i
*315 wbs_ack_o
*316 wbs_adr_i[0]
*317 wbs_adr_i[10]
*318 wbs_adr_i[11]
*319 wbs_adr_i[12]
*320 wbs_adr_i[13]
*321 wbs_adr_i[14]
*322 wbs_adr_i[15]
*323 wbs_adr_i[16]
*324 wbs_adr_i[17]
*325 wbs_adr_i[18]
*326 wbs_adr_i[19]
*327 wbs_adr_i[1]
*328 wbs_adr_i[20]
*329 wbs_adr_i[21]
*330 wbs_adr_i[22]
*331 wbs_adr_i[23]
*332 wbs_adr_i[24]
*333 wbs_adr_i[25]
*334 wbs_adr_i[26]
*335 wbs_adr_i[27]
*336 wbs_adr_i[28]
*337 wbs_adr_i[29]
*338 wbs_adr_i[2]
*339 wbs_adr_i[30]
*340 wbs_adr_i[31]
*341 wbs_adr_i[3]
*342 wbs_adr_i[4]
*343 wbs_adr_i[5]
*344 wbs_adr_i[6]
*345 wbs_adr_i[7]
*346 wbs_adr_i[8]
*347 wbs_adr_i[9]
*348 wbs_cyc_i
*349 wbs_dat_i[0]
*350 wbs_dat_i[10]
*351 wbs_dat_i[11]
*352 wbs_dat_i[12]
*353 wbs_dat_i[13]
*354 wbs_dat_i[14]
*355 wbs_dat_i[15]
*356 wbs_dat_i[16]
*357 wbs_dat_i[17]
*358 wbs_dat_i[18]
*359 wbs_dat_i[19]
*360 wbs_dat_i[1]
*361 wbs_dat_i[20]
*362 wbs_dat_i[21]
*363 wbs_dat_i[22]
*364 wbs_dat_i[23]
*365 wbs_dat_i[24]
*366 wbs_dat_i[25]
*367 wbs_dat_i[26]
*368 wbs_dat_i[27]
*369 wbs_dat_i[28]
*370 wbs_dat_i[29]
*371 wbs_dat_i[2]
*372 wbs_dat_i[30]
*373 wbs_dat_i[31]
*374 wbs_dat_i[3]
*375 wbs_dat_i[4]
*376 wbs_dat_i[5]
*377 wbs_dat_i[6]
*378 wbs_dat_i[7]
*379 wbs_dat_i[8]
*380 wbs_dat_i[9]
*381 wbs_dat_o[0]
*382 wbs_dat_o[10]
*383 wbs_dat_o[11]
*384 wbs_dat_o[12]
*385 wbs_dat_o[13]
*386 wbs_dat_o[14]
*387 wbs_dat_o[15]
*388 wbs_dat_o[16]
*389 wbs_dat_o[17]
*390 wbs_dat_o[18]
*391 wbs_dat_o[19]
*392 wbs_dat_o[1]
*393 wbs_dat_o[20]
*394 wbs_dat_o[21]
*395 wbs_dat_o[22]
*396 wbs_dat_o[23]
*397 wbs_dat_o[24]
*398 wbs_dat_o[25]
*399 wbs_dat_o[26]
*400 wbs_dat_o[27]
*401 wbs_dat_o[28]
*402 wbs_dat_o[29]
*403 wbs_dat_o[2]
*404 wbs_dat_o[30]
*405 wbs_dat_o[31]
*406 wbs_dat_o[3]
*407 wbs_dat_o[4]
*408 wbs_dat_o[5]
*409 wbs_dat_o[6]
*410 wbs_dat_o[7]
*411 wbs_dat_o[8]
*412 wbs_dat_o[9]
*413 wbs_sel_i[0]
*414 wbs_sel_i[1]
*415 wbs_sel_i[2]
*416 wbs_sel_i[3]
*417 wbs_stb_i
*418 wbs_we_i
*419 wrapped_as2650

*PORTS
io_in[0] I
io_in[10] I
io_in[11] I
io_in[12] I
io_in[13] I
io_in[14] I
io_in[15] I
io_in[16] I
io_in[17] I
io_in[18] I
io_in[19] I
io_in[1] I
io_in[20] I
io_in[21] I
io_in[22] I
io_in[23] I
io_in[24] I
io_in[25] I
io_in[26] I
io_in[27] I
io_in[28] I
io_in[29] I
io_in[2] I
io_in[30] I
io_in[31] I
io_in[32] I
io_in[33] I
io_in[34] I
io_in[35] I
io_in[36] I
io_in[37] I
io_in[3] I
io_in[4] I
io_in[5] I
io_in[6] I
io_in[7] I
io_in[8] I
io_in[9] I
io_oeb[0] O
io_oeb[10] O
io_oeb[11] O
io_oeb[12] O
io_oeb[13] O
io_oeb[14] O
io_oeb[15] O
io_oeb[16] O
io_oeb[17] O
io_oeb[18] O
io_oeb[19] O
io_oeb[1] O
io_oeb[20] O
io_oeb[21] O
io_oeb[22] O
io_oeb[23] O
io_oeb[24] O
io_oeb[25] O
io_oeb[26] O
io_oeb[27] O
io_oeb[28] O
io_oeb[29] O
io_oeb[2] O
io_oeb[30] O
io_oeb[31] O
io_oeb[32] O
io_oeb[33] O
io_oeb[34] O
io_oeb[35] O
io_oeb[36] O
io_oeb[37] O
io_oeb[3] O
io_oeb[4] O
io_oeb[5] O
io_oeb[6] O
io_oeb[7] O
io_oeb[8] O
io_oeb[9] O
io_out[0] O
io_out[10] O
io_out[11] O
io_out[12] O
io_out[13] O
io_out[14] O
io_out[15] O
io_out[16] O
io_out[17] O
io_out[18] O
io_out[19] O
io_out[1] O
io_out[20] O
io_out[21] O
io_out[22] O
io_out[23] O
io_out[24] O
io_out[25] O
io_out[26] O
io_out[27] O
io_out[28] O
io_out[29] O
io_out[2] O
io_out[30] O
io_out[31] O
io_out[32] O
io_out[33] O
io_out[34] O
io_out[35] O
io_out[36] O
io_out[37] O
io_out[3] O
io_out[4] O
io_out[5] O
io_out[6] O
io_out[7] O
io_out[8] O
io_out[9] O
la_data_in[0] I
la_data_in[10] I
la_data_in[11] I
la_data_in[12] I
la_data_in[13] I
la_data_in[14] I
la_data_in[15] I
la_data_in[16] I
la_data_in[17] I
la_data_in[18] I
la_data_in[19] I
la_data_in[1] I
la_data_in[20] I
la_data_in[21] I
la_data_in[22] I
la_data_in[23] I
la_data_in[24] I
la_data_in[25] I
la_data_in[26] I
la_data_in[27] I
la_data_in[28] I
la_data_in[29] I
la_data_in[2] I
la_data_in[30] I
la_data_in[31] I
la_data_in[32] I
la_data_in[33] I
la_data_in[34] I
la_data_in[35] I
la_data_in[36] I
la_data_in[37] I
la_data_in[38] I
la_data_in[39] I
la_data_in[3] I
la_data_in[40] I
la_data_in[41] I
la_data_in[42] I
la_data_in[43] I
la_data_in[44] I
la_data_in[45] I
la_data_in[46] I
la_data_in[47] I
la_data_in[48] I
la_data_in[49] I
la_data_in[4] I
la_data_in[50] I
la_data_in[51] I
la_data_in[52] I
la_data_in[53] I
la_data_in[54] I
la_data_in[55] I
la_data_in[56] I
la_data_in[57] I
la_data_in[58] I
la_data_in[59] I
la_data_in[5] I
la_data_in[60] I
la_data_in[61] I
la_data_in[62] I
la_data_in[63] I
la_data_in[6] I
la_data_in[7] I
la_data_in[8] I
la_data_in[9] I
la_data_out[0] O
la_data_out[10] O
la_data_out[11] O
la_data_out[12] O
la_data_out[13] O
la_data_out[14] O
la_data_out[15] O
la_data_out[16] O
la_data_out[17] O
la_data_out[18] O
la_data_out[19] O
la_data_out[1] O
la_data_out[20] O
la_data_out[21] O
la_data_out[22] O
la_data_out[23] O
la_data_out[24] O
la_data_out[25] O
la_data_out[26] O
la_data_out[27] O
la_data_out[28] O
la_data_out[29] O
la_data_out[2] O
la_data_out[30] O
la_data_out[31] O
la_data_out[32] O
la_data_out[33] O
la_data_out[34] O
la_data_out[35] O
la_data_out[36] O
la_data_out[37] O
la_data_out[38] O
la_data_out[39] O
la_data_out[3] O
la_data_out[40] O
la_data_out[41] O
la_data_out[42] O
la_data_out[43] O
la_data_out[44] O
la_data_out[45] O
la_data_out[46] O
la_data_out[47] O
la_data_out[48] O
la_data_out[49] O
la_data_out[4] O
la_data_out[50] O
la_data_out[51] O
la_data_out[52] O
la_data_out[53] O
la_data_out[54] O
la_data_out[55] O
la_data_out[56] O
la_data_out[57] O
la_data_out[58] O
la_data_out[59] O
la_data_out[5] O
la_data_out[60] O
la_data_out[61] O
la_data_out[62] O
la_data_out[63] O
la_data_out[6] O
la_data_out[7] O
la_data_out[8] O
la_data_out[9] O
la_oenb[0] I
la_oenb[10] I
la_oenb[11] I
la_oenb[12] I
la_oenb[13] I
la_oenb[14] I
la_oenb[15] I
la_oenb[16] I
la_oenb[17] I
la_oenb[18] I
la_oenb[19] I
la_oenb[1] I
la_oenb[20] I
la_oenb[21] I
la_oenb[22] I
la_oenb[23] I
la_oenb[24] I
la_oenb[25] I
la_oenb[26] I
la_oenb[27] I
la_oenb[28] I
la_oenb[29] I
la_oenb[2] I
la_oenb[30] I
la_oenb[31] I
la_oenb[32] I
la_oenb[33] I
la_oenb[34] I
la_oenb[35] I
la_oenb[36] I
la_oenb[37] I
la_oenb[38] I
la_oenb[39] I
la_oenb[3] I
la_oenb[40] I
la_oenb[41] I
la_oenb[42] I
la_oenb[43] I
la_oenb[44] I
la_oenb[45] I
la_oenb[46] I
la_oenb[47] I
la_oenb[48] I
la_oenb[49] I
la_oenb[4] I
la_oenb[50] I
la_oenb[51] I
la_oenb[52] I
la_oenb[53] I
la_oenb[54] I
la_oenb[55] I
la_oenb[56] I
la_oenb[57] I
la_oenb[58] I
la_oenb[59] I
la_oenb[5] I
la_oenb[60] I
la_oenb[61] I
la_oenb[62] I
la_oenb[63] I
la_oenb[6] I
la_oenb[7] I
la_oenb[8] I
la_oenb[9] I
user_clock2 I
user_irq[0] O
user_irq[1] O
user_irq[2] O
wb_clk_i I
wb_rst_i I
wbs_ack_o O
wbs_adr_i[0] I
wbs_adr_i[10] I
wbs_adr_i[11] I
wbs_adr_i[12] I
wbs_adr_i[13] I
wbs_adr_i[14] I
wbs_adr_i[15] I
wbs_adr_i[16] I
wbs_adr_i[17] I
wbs_adr_i[18] I
wbs_adr_i[19] I
wbs_adr_i[1] I
wbs_adr_i[20] I
wbs_adr_i[21] I
wbs_adr_i[22] I
wbs_adr_i[23] I
wbs_adr_i[24] I
wbs_adr_i[25] I
wbs_adr_i[26] I
wbs_adr_i[27] I
wbs_adr_i[28] I
wbs_adr_i[29] I
wbs_adr_i[2] I
wbs_adr_i[30] I
wbs_adr_i[31] I
wbs_adr_i[3] I
wbs_adr_i[4] I
wbs_adr_i[5] I
wbs_adr_i[6] I
wbs_adr_i[7] I
wbs_adr_i[8] I
wbs_adr_i[9] I
wbs_cyc_i I
wbs_dat_i[0] I
wbs_dat_i[10] I
wbs_dat_i[11] I
wbs_dat_i[12] I
wbs_dat_i[13] I
wbs_dat_i[14] I
wbs_dat_i[15] I
wbs_dat_i[16] I
wbs_dat_i[17] I
wbs_dat_i[18] I
wbs_dat_i[19] I
wbs_dat_i[1] I
wbs_dat_i[20] I
wbs_dat_i[21] I
wbs_dat_i[22] I
wbs_dat_i[23] I
wbs_dat_i[24] I
wbs_dat_i[25] I
wbs_dat_i[26] I
wbs_dat_i[27] I
wbs_dat_i[28] I
wbs_dat_i[29] I
wbs_dat_i[2] I
wbs_dat_i[30] I
wbs_dat_i[31] I
wbs_dat_i[3] I
wbs_dat_i[4] I
wbs_dat_i[5] I
wbs_dat_i[6] I
wbs_dat_i[7] I
wbs_dat_i[8] I
wbs_dat_i[9] I
wbs_dat_o[0] O
wbs_dat_o[10] O
wbs_dat_o[11] O
wbs_dat_o[12] O
wbs_dat_o[13] O
wbs_dat_o[14] O
wbs_dat_o[15] O
wbs_dat_o[16] O
wbs_dat_o[17] O
wbs_dat_o[18] O
wbs_dat_o[19] O
wbs_dat_o[1] O
wbs_dat_o[20] O
wbs_dat_o[21] O
wbs_dat_o[22] O
wbs_dat_o[23] O
wbs_dat_o[24] O
wbs_dat_o[25] O
wbs_dat_o[26] O
wbs_dat_o[27] O
wbs_dat_o[28] O
wbs_dat_o[29] O
wbs_dat_o[2] O
wbs_dat_o[30] O
wbs_dat_o[31] O
wbs_dat_o[3] O
wbs_dat_o[4] O
wbs_dat_o[5] O
wbs_dat_o[6] O
wbs_dat_o[7] O
wbs_dat_o[8] O
wbs_dat_o[9] O
wbs_sel_i[0] I
wbs_sel_i[1] I
wbs_sel_i[2] I
wbs_sel_i[3] I
wbs_stb_i I
wbs_we_i I

*D_NET *1 0.377391
*CONN
*P io_in[0] I
*I *419:io_in[0] I *D wrapped_as2650
*CAP
1 io_in[0] 0.0615231
2 *419:io_in[0] 0
3 *1:9 0.0965253
4 *1:7 0.0965253
5 *1:5 0.0615231
6 *1:5 la_data_out[14] 0
7 *1:5 la_data_out[15] 0
8 *1:5 la_data_out[17] 0
9 *1:5 la_data_out[19] 0
10 *1:5 la_data_out[20] 0
11 *1:5 la_data_out[3] 0.0003803
12 *1:5 la_data_out[7] 0
13 *1:5 *193:9 0.00385289
14 *1:5 *194:19 0
15 *1:5 *195:19 0
16 *1:5 *199:19 0
17 *1:5 *200:9 0.000764163
18 *1:5 *201:11 0
19 *1:5 *202:17 0
20 *1:5 *204:9 0.00728031
21 *1:5 *215:17 0
22 *1:5 *216:17 7.33805e-05
23 *1:5 *217:9 0
24 *1:5 *220:9 0.0122896
25 *1:5 *222:17 0
26 *1:5 *237:17 0
27 *1:9 la_data_out[5] 0.0366531
*RES
1 io_in[0] *1:5 565.965 
2 *1:5 *1:7 4.5 
3 *1:7 *1:9 787.95 
4 *1:9 *419:io_in[0] 9 
*END

*D_NET *2 0.334606
*CONN
*P io_in[10] I
*I *419:io_in[10] I *D wrapped_as2650
*CAP
1 io_in[10] 0.00100455
2 *419:io_in[10] 0.000885937
3 *2:13 0.0321953
4 *2:11 0.0313094
5 *2:9 0.00176994
6 *2:7 0.00277449
7 *419:io_in[10] *112:15 0.000360576
8 *2:9 *75:21 0.0607872
9 *2:9 *78:21 0.0524962
10 *2:9 *112:21 1.86452e-05
11 *2:13 *4:13 0.0123294
12 *2:13 *10:9 0.000206675
13 *2:13 *19:13 0.0551197
14 *2:13 *37:21 0.00255003
15 *2:13 *58:9 0.00470867
16 *2:13 *59:9 0.0211365
17 *2:13 *65:9 3.42509e-05
18 *2:13 *66:9 0.0236926
19 *2:13 *75:9 0.00699428
20 *2:13 *78:9 0.0150119
21 *2:13 *96:15 0.00133735
22 *2:13 *101:15 0.0035421
23 *2:13 *111:15 0.000277503
24 *2:13 *112:17 0
25 *2:13 *114:9 0.00406235
*RES
1 io_in[10] *2:7 11.925 
2 *2:7 *2:9 156.87 
3 *2:9 *2:11 4.5 
4 *2:11 *2:13 472.23 
5 *2:13 *419:io_in[10] 10.125 
*END

*D_NET *3 0.256942
*CONN
*P io_in[11] I
*I *419:io_in[11] I *D wrapped_as2650
*CAP
1 io_in[11] 0.0288146
2 *419:io_in[11] 0.000414058
3 *3:13 0.00819664
4 *3:11 0.00778259
5 *3:9 0.00422139
6 *3:7 0.00422139
7 *3:5 0.0288146
8 *3:9 *4:11 0.0103484
9 *3:9 *23:9 0.00298679
10 *3:9 *38:9 0.0354233
11 *3:13 *12:13 0.00745117
12 *3:13 *75:17 0.000346059
13 *3:13 *96:17 0.0115812
14 *3:13 *109:9 0.0973054
15 *3:13 *111:23 0.00903422
*RES
1 io_in[11] *3:5 226.845 
2 *3:5 *3:7 4.5 
3 *3:7 *3:9 90.27 
4 *3:9 *3:11 4.5 
5 *3:11 *3:13 244.17 
6 *3:13 *419:io_in[11] 6.885 
*END

*D_NET *4 0.246922
*CONN
*P io_in[12] I
*I *419:io_in[12] I *D wrapped_as2650
*CAP
1 io_in[12] 0.0288172
2 *419:io_in[12] 0.000869529
3 *4:13 0.00344032
4 *4:11 0.00470598
5 *4:5 0.0309524
6 *4:11 *23:9 0.000947314
7 *4:11 *38:9 0.000387805
8 *4:13 *37:21 0.000856514
9 *4:13 *38:13 0.0937771
10 *4:13 *58:9 0.0278885
11 *4:13 *59:9 0.00162295
12 *4:13 *75:9 0.0231789
13 *4:13 *101:15 0.00679999
14 *4:13 *112:17 0
15 *2:13 *4:13 0.0123294
16 *3:9 *4:11 0.0103484
*RES
1 io_in[12] *4:5 226.665 
2 *4:5 *4:11 38.25 
3 *4:11 *4:13 235.71 
4 *4:13 *419:io_in[12] 9.585 
*END

*D_NET *5 0.126124
*CONN
*P io_in[13] I
*I *419:io_in[13] I *D wrapped_as2650
*CAP
1 io_in[13] 0.0570706
2 *419:io_in[13] 0.00599136
3 *5:5 0.0630619
4 *5:5 *85:9 0
*RES
1 io_in[13] *5:5 453.645 
2 *5:5 *419:io_in[13] 44.145 
*END

*D_NET *6 0.144709
*CONN
*P io_in[14] I
*I *419:io_in[14] I *D wrapped_as2650
*CAP
1 io_in[14] 0.00134599
2 *419:io_in[14] 0.00333404
3 *6:13 0.0440907
4 *6:11 0.0407566
5 *6:9 0.0109567
6 *6:7 0.0123027
7 *6:13 io_oeb[12] 0.0319223
*RES
1 io_in[14] *6:7 12.825 
2 *6:7 *6:9 84.15 
3 *6:9 *6:11 4.5 
4 *6:11 *6:13 436.77 
5 *6:13 *419:io_in[14] 23.805 
*END

*D_NET *7 0.18954
*CONN
*P io_in[15] I
*I *419:io_in[15] I *D wrapped_as2650
*CAP
1 io_in[15] 0.00142029
2 *419:io_in[15] 0.0199584
3 *7:11 0.0199584
4 *7:9 0.0252623
5 *7:7 0.0266826
6 *419:io_in[15] *78:15 0.00068514
7 *7:9 io_oeb[14] 0.078232
8 *7:9 *13:9 0.0173406
*RES
1 io_in[15] *7:7 15.525 
2 *7:7 *7:9 418.77 
3 *7:9 *7:11 4.5 
4 *7:11 *419:io_in[15] 146.205 
*END

*D_NET *8 0.203728
*CONN
*P io_in[16] I
*I *419:io_in[16] I *D wrapped_as2650
*CAP
1 io_in[16] 0.00426921
2 *419:io_in[16] 0.0171924
3 *8:11 0.0171924
4 *8:9 0.0194714
5 *8:7 0.0237406
6 *8:9 io_out[14] 0.121862
*RES
1 io_in[16] *8:7 36.945 
2 *8:7 *8:9 303.75 
3 *8:9 *8:11 4.5 
4 *8:11 *419:io_in[16] 124.785 
*END

*D_NET *9 0.0990403
*CONN
*P io_in[17] I
*I *419:io_in[17] I *D wrapped_as2650
*CAP
1 io_in[17] 0.00249999
2 *419:io_in[17] 0.0191212
3 *9:11 0.0191212
4 *9:9 0.0216064
5 *9:7 0.0241064
6 *9:9 *14:9 0.00108548
7 *9:9 *51:9 0.0114997
*RES
1 io_in[17] *9:7 23.265 
2 *9:7 *9:9 188.73 
3 *9:9 *9:11 4.5 
4 *9:11 *419:io_in[17] 138.465 
*END

*D_NET *10 0.0802042
*CONN
*P io_in[18] I
*I *419:io_in[18] I *D wrapped_as2650
*CAP
1 io_in[18] 0.0202664
2 *419:io_in[18] 0.0011504
3 *10:9 0.00246937
4 *10:7 0.00131896
5 *10:5 0.0202664
6 *10:5 *57:7 0
7 *10:5 *84:13 0
8 *10:5 *95:7 0
9 *10:9 *19:13 0.00386503
10 *10:9 *49:9 0.00452205
11 *10:9 *53:9 0.00481025
12 *10:9 *86:11 0.0129554
13 *10:9 *96:15 0.00089306
14 *10:9 *114:9 0.00748033
15 *2:13 *10:9 0.000206675
*RES
1 io_in[18] *10:5 150.885 
2 *10:5 *10:7 4.5 
3 *10:7 *10:9 73.71 
4 *10:9 *419:io_in[18] 10.845 
*END

*D_NET *11 0.0537868
*CONN
*P io_in[19] I
*I *419:io_in[19] I *D wrapped_as2650
*CAP
1 io_in[19] 0.0028077
2 *419:io_in[19] 0.0187568
3 *11:11 0.0239437
4 *11:7 0.00799457
5 *11:7 *44:5 0.000284066
*RES
1 io_in[19] *11:7 26.325 
2 *11:7 *11:11 45.99 
3 *11:11 *419:io_in[19] 135.405 
*END

*D_NET *12 0.552255
*CONN
*P io_in[1] I
*I *419:io_in[1] I *D wrapped_as2650
*CAP
1 io_in[1] 0.00111227
2 *419:io_in[1] 0.000708206
3 *12:25 0.00608142
4 *12:19 0.00581144
5 *12:13 0.0379971
6 *12:11 0.0375589
7 *12:9 0.0897818
8 *12:7 0.0908941
9 *12:9 *37:9 0.00965788
10 *12:9 *111:27 0.0341682
11 *12:9 *112:21 0.0086001
12 *12:9 *113:21 0.00748396
13 *12:13 *23:13 6.98099e-05
14 *12:13 *34:13 0
15 *12:13 *39:15 0.114893
16 *12:13 *58:17 0.00221382
17 *12:13 *75:17 0.00766256
18 *12:13 *78:17 0.00656232
19 *12:13 *96:17 0.00572607
20 *12:13 *99:15 4.29768e-05
21 *12:13 *109:9 0.00673364
22 *12:13 *111:23 0.0252891
23 *12:13 *112:17 0.00598423
24 *12:25 *19:13 0.00356332
25 *12:25 *21:21 0.00530335
26 *12:25 *23:13 0.000252587
27 *12:25 *31:13 0
28 *12:25 *37:21 0.0179509
29 *12:25 *39:15 0
30 *12:25 *53:9 0.000429926
31 *12:25 *75:9 0.000554853
32 *12:25 *99:15 0.00358895
33 *12:25 *111:15 0.00812697
34 *3:13 *12:13 0.00745117
*RES
1 io_in[1] *12:7 12.825 
2 *12:7 *12:9 727.782 
3 *12:9 *12:11 4.5 
4 *12:11 *12:13 191.962 
5 *12:13 *12:19 11.115 
6 *12:19 *12:25 46.1941 
7 *12:25 *419:io_in[1] 13.545 
*END

*D_NET *13 0.0948007
*CONN
*P io_in[20] I
*I *419:io_in[20] I *D wrapped_as2650
*CAP
1 io_in[20] 0.00144515
2 *419:io_in[20] 0.0202528
3 *13:11 0.0202528
4 *13:9 0.0166603
5 *13:7 0.0181055
6 *13:9 io_oeb[14] 0.000743618
7 *7:9 *13:9 0.0173406
*RES
1 io_in[20] *13:7 15.345 
2 *13:7 *13:9 156.15 
3 *13:9 *13:11 4.5 
4 *13:11 *419:io_in[20] 146.385 
*END

*D_NET *14 0.175882
*CONN
*P io_in[21] I
*I *419:io_in[21] I *D wrapped_as2650
*CAP
1 io_in[21] 0.00254599
2 *419:io_in[21] 0.0190562
3 *14:11 0.0190562
4 *14:9 0.0196016
5 *14:7 0.0221476
6 *14:9 *51:9 0.0923893
7 *9:9 *14:9 0.00108548
*RES
1 io_in[21] *14:7 23.625 
2 *14:7 *14:9 271.53 
3 *14:9 *14:11 4.5 
4 *14:11 *419:io_in[21] 138.105 
*END

*D_NET *15 0.140852
*CONN
*P io_in[22] I
*I *419:io_in[22] I *D wrapped_as2650
*CAP
1 io_in[22] 0.00463712
2 *419:io_in[22] 0.0168375
3 *15:11 0.0168375
4 *15:9 0.0425891
5 *15:7 0.0472262
6 *419:io_in[22] *20:19 0
7 *15:9 io_out[24] 0.0127251
*RES
1 io_in[22] *15:7 39.825 
2 *15:7 *15:9 386.55 
3 *15:9 *15:11 4.5 
4 *15:11 *419:io_in[22] 121.905 
*END

*D_NET *16 0.26564
*CONN
*P io_in[23] I
*I *419:io_in[23] I *D wrapped_as2650
*CAP
1 io_in[23] 0.00391542
2 *419:io_in[23] 0.0175398
3 *16:11 0.0175398
4 *16:9 0.0407053
5 *16:7 0.0446208
6 *16:9 *45:9 0.00269789
7 *16:9 *52:9 0.138621
*RES
1 io_in[23] *16:7 34.425 
2 *16:7 *16:9 501.57 
3 *16:9 *16:11 4.5 
4 *16:11 *419:io_in[23] 127.305 
*END

*D_NET *17 0.188831
*CONN
*P io_in[24] I
*I *419:io_in[24] I *D wrapped_as2650
*CAP
1 io_in[24] 0.0747094
2 *419:io_in[24] 0.019706
3 *17:7 0.019706
4 *17:5 0.0747094
*RES
1 io_in[24] *17:5 598.185 
2 *17:5 *17:7 4.5 
3 *17:7 *419:io_in[24] 143.505 
*END

*D_NET *18 0.177745
*CONN
*P io_in[25] I
*I *419:io_in[25] I *D wrapped_as2650
*CAP
1 io_in[25] 0.0760681
2 *419:io_in[25] 0.0128046
3 *18:7 0.0128046
4 *18:5 0.0760681
*RES
1 io_in[25] *18:5 606.825 
2 *18:5 *18:7 4.5 
3 *18:7 *419:io_in[25] 75.465 
*END

*D_NET *19 0.33471
*CONN
*P io_in[26] I
*I *419:io_in[26] I *D wrapped_as2650
*CAP
1 io_in[26] 0.00106505
2 *419:io_in[26] 0.000817783
3 *19:13 0.0385952
4 *19:11 0.0388425
5 *419:io_in[26] *419:io_in[29] 0.00065073
6 *19:11 *65:21 4.36607e-05
7 *19:11 *66:17 0.000520931
8 *19:13 *37:21 0.00308778
9 *19:13 *53:9 0.184377
10 *19:13 *66:17 0
11 *19:13 *75:9 0.00185346
12 *19:13 *101:15 0.00214526
13 *19:13 *112:15 0.000162718
14 *2:13 *19:13 0.0551197
15 *10:9 *19:13 0.00386503
16 *12:25 *19:13 0.00356332
*RES
1 io_in[26] *19:11 18.135 
2 *19:11 *19:13 608.13 
3 *19:13 *419:io_in[26] 10.305 
*END

*D_NET *20 0.392848
*CONN
*P io_in[27] I
*I *419:io_in[27] I *D wrapped_as2650
*CAP
1 io_in[27] 0.00120805
2 *419:io_in[27] 0.000757512
3 *20:23 0.00231738
4 *20:19 0.00221501
5 *20:13 0.0351415
6 *20:11 0.0344863
7 *20:9 6.57683e-05
8 *20:7 0.00127382
9 *20:9 *21:9 0.0239878
10 *20:9 *58:21 0.0239798
11 *20:13 *22:13 0.230996
12 *20:13 *32:13 0.000242798
13 *20:13 *33:13 0.000284255
14 *20:13 *34:13 0.00555431
15 *20:13 *37:13 0.0151933
16 *20:13 *98:9 0
17 *20:19 *53:7 7.44001e-05
18 *20:23 *419:io_in[29] 0.00362407
19 *20:23 *38:13 0.00587692
20 *20:23 *111:15 0.00195607
21 *20:23 *112:17 0.00361221
22 *419:io_in[22] *20:19 0
*RES
1 io_in[27] *20:7 11.745 
2 *20:7 *20:9 61.11 
3 *20:9 *20:11 4.5 
4 *20:11 *20:13 575.55 
5 *20:13 *20:19 13.05 
6 *20:19 *20:23 45.99 
7 *20:23 *419:io_in[27] 4.545 
*END

*D_NET *21 0.496387
*CONN
*P io_in[28] I
*I *419:io_in[28] I *D wrapped_as2650
*CAP
1 io_in[28] 0.00115401
2 *419:io_in[28] 0.000825717
3 *21:21 0.00130852
4 *21:19 0.000648514
5 *21:13 0.0300204
6 *21:11 0.0298547
7 *21:9 0.00216535
8 *21:7 0.00331935
9 *21:9 *22:9 0.000346029
10 *21:9 *58:21 0.00848413
11 *21:9 *59:21 0.0498173
12 *21:9 *60:10 0
13 *21:9 *65:21 1.51153e-05
14 *21:9 *101:27 0.000343816
15 *21:13 *23:13 0.00357598
16 *21:13 *39:15 0.000506559
17 *21:13 *101:23 0.191797
18 *21:13 *112:15 0.000258354
19 *21:13 *112:17 0.0034327
20 *21:13 *113:15 0.000833705
21 *21:19 *113:15 0.000347895
22 *21:21 *419:io_in[29] 0.000208525
23 *21:21 *37:21 0.00529478
24 *21:21 *38:13 0.00646155
25 *21:21 *99:15 0.00064594
26 *21:21 *101:15 0.0551873
27 *21:21 *111:15 0.070243
28 *12:25 *21:21 0.00530335
29 *20:9 *21:9 0.0239878
*RES
1 io_in[28] *21:7 11.565 
2 *21:7 *21:9 132.03 
3 *21:9 *21:11 4.5 
4 *21:11 *21:13 478.53 
5 *21:13 *21:19 10.2375 
6 *21:19 *21:21 62.5255 
7 *21:21 *419:io_in[28] 18.3825 
*END

*D_NET *22 0.53939
*CONN
*P io_in[29] I
*I *419:io_in[29] I *D wrapped_as2650
*CAP
1 io_in[29] 0.000868218
2 *419:io_in[29] 0.00188439
3 *22:13 0.0240762
4 *22:11 0.0221918
5 *22:9 0.00161729
6 *22:7 0.00248551
7 *419:io_in[29] *38:13 0.0105784
8 *419:io_in[29] *111:15 0.000524205
9 *419:io_in[29] *112:17 0.00126655
10 *22:9 *59:21 0.0677349
11 *22:9 *101:27 0.0773496
12 *22:13 *28:13 0.00631376
13 *22:13 *32:13 0.000267035
14 *22:13 *33:13 0.00030861
15 *22:13 *34:13 0.00703761
16 *22:13 *36:13 0.00391541
17 *22:13 *37:13 0.00603818
18 *22:13 *40:11 0.053768
19 *22:13 *60:6 0.0142595
20 *22:13 *110:6 0.00107907
21 *419:io_in[26] *419:io_in[29] 0.00065073
22 *20:13 *22:13 0.230996
23 *20:23 *419:io_in[29] 0.00362407
24 *21:9 *22:9 0.000346029
25 *21:21 *419:io_in[29] 0.000208525
*RES
1 io_in[29] *22:7 11.205 
2 *22:7 *22:9 196.83 
3 *22:9 *22:11 4.5 
4 *22:11 *22:13 608.49 
5 *22:13 *419:io_in[29] 49.005 
*END

*D_NET *23 0.666946
*CONN
*P io_in[2] I
*I *419:io_in[2] I *D wrapped_as2650
*CAP
1 io_in[2] 0.0284231
2 *419:io_in[2] 0.000609197
3 *23:13 0.00162585
4 *23:11 0.00101666
5 *23:9 0.00655827
6 *23:7 0.00655827
7 *23:5 0.0284231
8 *23:9 *38:9 0.0042498
9 *23:9 *39:19 0.126051
10 *23:9 *99:19 0.122002
11 *23:13 *39:15 0.158176
12 *23:13 *78:17 0.00999919
13 *23:13 *99:15 0.155563
14 *23:13 *112:17 0.00985773
15 *3:9 *23:9 0.00298679
16 *4:11 *23:9 0.000947314
17 *12:13 *23:13 6.98099e-05
18 *12:25 *23:13 0.000252587
19 *21:13 *23:13 0.00357598
*RES
1 io_in[2] *23:5 226.665 
2 *23:5 *23:7 4.5 
3 *23:7 *23:9 665 
4 *23:9 *23:11 4.5 
5 *23:11 *23:13 136.675 
6 *23:13 *419:io_in[2] 17.2254 
*END

*D_NET *24 0.229351
*CONN
*P io_in[30] I
*I *419:io_in[30] I *D wrapped_as2650
*CAP
1 io_in[30] 0.0817331
2 *419:io_in[30] 0.00105192
3 *24:9 0.0326587
4 *24:7 0.0316068
5 *24:5 0.0817331
6 *419:io_in[30] *35:13 0.000465069
7 *419:io_in[30] *113:17 0.00010184
*RES
1 io_in[30] *24:5 647.505 
2 *24:5 *24:7 4.5 
3 *24:7 *24:9 258.48 
4 *24:9 *419:io_in[30] 17.505 
*END

*D_NET *25 0.247959
*CONN
*P io_in[31] I
*I *419:io_in[31] I *D wrapped_as2650
*CAP
1 io_in[31] 0.0831967
2 *419:io_in[31] 0.000817421
3 *25:9 0.0407828
4 *25:7 0.0399654
5 *25:5 0.0831967
*RES
1 io_in[31] *25:5 658.305 
2 *25:5 *25:7 4.5 
3 *25:7 *25:9 326.52 
4 *25:9 *419:io_in[31] 15.03 
*END

*D_NET *26 0.422778
*CONN
*P io_in[32] I
*I *419:io_in[32] I *D wrapped_as2650
*CAP
1 io_in[32] 0.0471314
2 *419:io_in[32] 0.0013837
3 *26:13 0.00832548
4 *26:11 0.00694178
5 *26:9 0.0533088
6 *26:7 0.0533088
7 *26:5 0.0471314
8 *26:13 *27:13 0.116481
9 *26:13 *30:13 0.000699684
10 *26:13 *63:9 0
11 *26:13 *76:9 0.0782687
12 *26:13 *77:15 0.00979659
*RES
1 io_in[32] *26:5 376.065 
2 *26:5 *26:7 4.5 
3 *26:7 *26:9 409.23 
4 *26:9 *26:11 4.5 
5 *26:11 *26:13 291.33 
6 *26:13 *419:io_in[32] 12.825 
*END

*D_NET *27 0.464584
*CONN
*P io_in[33] I
*I *419:io_in[33] I *D wrapped_as2650
*CAP
1 io_in[33] 0.0464154
2 *419:io_in[33] 0.00134474
3 *27:13 0.00300921
4 *27:11 0.00166446
5 *27:9 0.0621023
6 *27:7 0.0621023
7 *27:5 0.0464154
8 *27:13 *29:13 0.00960665
9 *27:13 *30:13 0.000952559
10 *27:13 *63:9 0
11 *27:13 *76:9 0.0016124
12 *27:13 *77:15 0.011529
13 *27:13 *108:9 0.101348
14 *26:13 *27:13 0.116481
*RES
1 io_in[33] *27:5 370.665 
2 *27:5 *27:7 4.5 
3 *27:7 *27:9 477.09 
4 *27:9 *27:11 4.5 
5 *27:11 *27:13 305.37 
6 *27:13 *419:io_in[33] 12.645 
*END

*D_NET *28 0.462151
*CONN
*P io_in[34] I
*I *419:io_in[34] I *D wrapped_as2650
*CAP
1 io_in[34] 0.0214284
2 *419:io_in[34] 2.23398e-05
3 *28:13 0.0412107
4 *28:11 0.0411884
5 *28:9 0.065825
6 *28:7 0.065825
7 *28:5 0.0214284
8 *28:13 *32:13 0.132571
9 *28:13 *35:13 0.00936061
10 *28:13 *59:17 0.0241633
11 *28:13 *60:6 0.023227
12 *28:13 *113:17 0.00958714
13 *22:13 *28:13 0.00631376
*RES
1 io_in[34] *28:5 170.865 
2 *28:5 *28:7 4.5 
3 *28:7 *28:9 536.281 
4 *28:9 *28:11 4.5 
5 *28:11 *28:13 218.002 
6 *28:13 *419:io_in[34] 13.6189 
*END

*D_NET *29 0.513285
*CONN
*P io_in[35] I
*I *419:io_in[35] I *D wrapped_as2650
*CAP
1 io_in[35] 0.0460061
2 *419:io_in[35] 0.00123492
3 *29:13 0.00282811
4 *29:11 0.00159319
5 *29:9 0.0796727
6 *29:7 0.0796727
7 *29:5 0.0460061
8 *29:13 *30:13 0.015599
9 *29:13 *50:9 0.116274
10 *29:13 *95:9 0.00647695
11 *29:13 *108:9 0.108314
12 *27:13 *29:13 0.00960665
*RES
1 io_in[35] *29:5 367.965 
2 *29:5 *29:7 4.5 
3 *29:7 *29:9 612.81 
4 *29:9 *29:11 4.5 
5 *29:11 *29:13 325.35 
6 *29:13 *419:io_in[35] 12.285 
*END

*D_NET *30 0.598803
*CONN
*P io_in[36] I
*I *419:io_in[36] I *D wrapped_as2650
*CAP
1 io_in[36] 0.0456654
2 *419:io_in[36] 0.00121868
3 *30:13 0.00349797
4 *30:11 0.00227928
5 *30:9 0.0836712
6 *30:7 0.0836712
7 *30:5 0.0456654
8 *30:13 *31:13 0.165684
9 *30:13 *77:15 0.150199
10 *26:13 *30:13 0.000699684
11 *27:13 *30:13 0.000952559
12 *29:13 *30:13 0.015599
*RES
1 io_in[36] *30:5 365.265 
2 *30:5 *30:7 4.5 
3 *30:7 *30:9 680.75 
4 *30:9 *30:11 4.5 
5 *30:11 *30:13 142.86 
6 *30:13 *419:io_in[36] 21.2754 
*END

*D_NET *31 0.530619
*CONN
*P io_in[37] I
*I *419:io_in[37] I *D wrapped_as2650
*CAP
1 io_in[37] 0.0421572
2 *419:io_in[37] 0.0011536
3 *31:13 0.0242433
4 *31:11 0.0230897
5 *31:9 0.0920263
6 *31:7 0.0920263
7 *31:5 0.0421572
8 *31:13 *37:21 0
9 *31:13 *50:9 0.011318
10 *31:13 *66:17 0.0126194
11 *31:13 *76:9 0.000538983
12 *31:13 *77:15 0.00184244
13 *31:13 *86:11 0.000929669
14 *31:13 *95:9 0.0134195
15 *31:13 *101:15 0
16 *31:13 *114:9 0.00741423