*SPEF "ieee 1481-1999"
*DESIGN "user_project_wrapper"
*DATE "11:11:11 Fri 11 11, 1111"
*VENDOR "OpenRCX"
*PROGRAM "Parallel Extraction"
*VERSION "1.0"
*DESIGN_FLOW "NAME_SCOPE LOCAL" "PIN_CAP NONE"
*DIVIDER /
*DELIMITER :
*BUS_DELIMITER []
*T_UNIT 1 NS
*C_UNIT 1 PF
*R_UNIT 1 OHM
*L_UNIT 1 HENRY

*NAME_MAP
*1 io_in[0]
*2 io_in[10]
*3 io_in[11]
*4 io_in[12]
*5 io_in[13]
*6 io_in[14]
*7 io_in[15]
*8 io_in[16]
*9 io_in[17]
*10 io_in[18]
*11 io_in[19]
*12 io_in[1]
*13 io_in[20]
*14 io_in[21]
*15 io_in[22]
*16 io_in[23]
*17 io_in[24]
*18 io_in[25]
*19 io_in[26]
*20 io_in[27]
*21 io_in[28]
*22 io_in[29]
*23 io_in[2]
*24 io_in[30]
*25 io_in[31]
*26 io_in[32]
*27 io_in[33]
*28 io_in[34]
*29 io_in[35]
*30 io_in[36]
*31 io_in[37]
*32 io_in[3]
*33 io_in[4]
*34 io_in[5]
*35 io_in[6]
*36 io_in[7]
*37 io_in[8]
*38 io_in[9]
*39 io_oeb[0]
*40 io_oeb[10]
*41 io_oeb[11]
*42 io_oeb[12]
*43 io_oeb[13]
*44 io_oeb[14]
*45 io_oeb[15]
*46 io_oeb[16]
*47 io_oeb[17]
*48 io_oeb[18]
*49 io_oeb[19]
*50 io_oeb[1]
*51 io_oeb[20]
*52 io_oeb[21]
*53 io_oeb[22]
*54 io_oeb[23]
*55 io_oeb[24]
*56 io_oeb[25]
*57 io_oeb[26]
*58 io_oeb[27]
*59 io_oeb[28]
*60 io_oeb[29]
*61 io_oeb[2]
*62 io_oeb[30]
*63 io_oeb[31]
*64 io_oeb[32]
*65 io_oeb[33]
*66 io_oeb[34]
*67 io_oeb[35]
*68 io_oeb[36]
*69 io_oeb[37]
*70 io_oeb[3]
*71 io_oeb[4]
*72 io_oeb[5]
*73 io_oeb[6]
*74 io_oeb[7]
*75 io_oeb[8]
*76 io_oeb[9]
*77 io_out[0]
*78 io_out[10]
*79 io_out[11]
*80 io_out[12]
*81 io_out[13]
*82 io_out[14]
*83 io_out[15]
*84 io_out[16]
*85 io_out[17]
*86 io_out[18]
*87 io_out[19]
*88 io_out[1]
*89 io_out[20]
*90 io_out[21]
*91 io_out[22]
*92 io_out[23]
*93 io_out[24]
*94 io_out[25]
*95 io_out[26]
*96 io_out[27]
*97 io_out[28]
*98 io_out[29]
*99 io_out[2]
*100 io_out[30]
*101 io_out[31]
*102 io_out[32]
*103 io_out[33]
*104 io_out[34]
*105 io_out[35]
*106 io_out[36]
*107 io_out[37]
*108 io_out[3]
*109 io_out[4]
*110 io_out[5]
*111 io_out[6]
*112 io_out[7]
*113 io_out[8]
*114 io_out[9]
*115 la_data_in[0]
*116 la_data_in[10]
*117 la_data_in[11]
*118 la_data_in[12]
*119 la_data_in[13]
*120 la_data_in[14]
*121 la_data_in[15]
*122 la_data_in[16]
*123 la_data_in[17]
*124 la_data_in[18]
*125 la_data_in[19]
*126 la_data_in[1]
*127 la_data_in[20]
*128 la_data_in[21]
*129 la_data_in[22]
*130 la_data_in[23]
*131 la_data_in[24]
*132 la_data_in[25]
*133 la_data_in[26]
*134 la_data_in[27]
*135 la_data_in[28]
*136 la_data_in[29]
*137 la_data_in[2]
*138 la_data_in[30]
*139 la_data_in[31]
*140 la_data_in[32]
*141 la_data_in[33]
*142 la_data_in[34]
*143 la_data_in[35]
*144 la_data_in[36]
*145 la_data_in[37]
*146 la_data_in[38]
*147 la_data_in[39]
*148 la_data_in[3]
*149 la_data_in[40]
*150 la_data_in[41]
*151 la_data_in[42]
*152 la_data_in[43]
*153 la_data_in[44]
*154 la_data_in[45]
*155 la_data_in[46]
*156 la_data_in[47]
*157 la_data_in[48]
*158 la_data_in[49]
*159 la_data_in[4]
*160 la_data_in[50]
*161 la_data_in[51]
*162 la_data_in[52]
*163 la_data_in[53]
*164 la_data_in[54]
*165 la_data_in[55]
*166 la_data_in[56]
*167 la_data_in[57]
*168 la_data_in[58]
*169 la_data_in[59]
*170 la_data_in[5]
*171 la_data_in[60]
*172 la_data_in[61]
*173 la_data_in[62]
*174 la_data_in[63]
*175 la_data_in[6]
*176 la_data_in[7]
*177 la_data_in[8]
*178 la_data_in[9]
*179 la_data_out[0]
*180 la_data_out[10]
*181 la_data_out[11]
*182 la_data_out[12]
*183 la_data_out[13]
*184 la_data_out[14]
*185 la_data_out[15]
*186 la_data_out[16]
*187 la_data_out[17]
*188 la_data_out[18]
*189 la_data_out[19]
*190 la_data_out[1]
*191 la_data_out[20]
*192 la_data_out[21]
*193 la_data_out[22]
*194 la_data_out[23]
*195 la_data_out[24]
*196 la_data_out[25]
*197 la_data_out[26]
*198 la_data_out[27]
*199 la_data_out[28]
*200 la_data_out[29]
*201 la_data_out[2]
*202 la_data_out[30]
*203 la_data_out[31]
*204 la_data_out[32]
*205 la_data_out[33]
*206 la_data_out[34]
*207 la_data_out[35]
*208 la_data_out[36]
*209 la_data_out[37]
*210 la_data_out[38]
*211 la_data_out[39]
*212 la_data_out[3]
*213 la_data_out[40]
*214 la_data_out[41]
*215 la_data_out[42]
*216 la_data_out[43]
*217 la_data_out[44]
*218 la_data_out[45]
*219 la_data_out[46]
*220 la_data_out[47]
*221 la_data_out[48]
*222 la_data_out[49]
*223 la_data_out[4]
*224 la_data_out[50]
*225 la_data_out[51]
*226 la_data_out[52]
*227 la_data_out[53]
*228 la_data_out[54]
*229 la_data_out[55]
*230 la_data_out[56]
*231 la_data_out[57]
*232 la_data_out[58]
*233 la_data_out[59]
*234 la_data_out[5]
*235 la_data_out[60]
*236 la_data_out[61]
*237 la_data_out[62]
*238 la_data_out[63]
*239 la_data_out[6]
*240 la_data_out[7]
*241 la_data_out[8]
*242 la_data_out[9]
*243 la_oenb[0]
*244 la_oenb[10]
*245 la_oenb[11]
*246 la_oenb[12]
*247 la_oenb[13]
*248 la_oenb[14]
*249 la_oenb[15]
*250 la_oenb[16]
*251 la_oenb[17]
*252 la_oenb[18]
*253 la_oenb[19]
*254 la_oenb[1]
*255 la_oenb[20]
*256 la_oenb[21]
*257 la_oenb[22]
*258 la_oenb[23]
*259 la_oenb[24]
*260 la_oenb[25]
*261 la_oenb[26]
*262 la_oenb[27]
*263 la_oenb[28]
*264 la_oenb[29]
*265 la_oenb[2]
*266 la_oenb[30]
*267 la_oenb[31]
*268 la_oenb[32]
*269 la_oenb[33]
*270 la_oenb[34]
*271 la_oenb[35]
*272 la_oenb[36]
*273 la_oenb[37]
*274 la_oenb[38]
*275 la_oenb[39]
*276 la_oenb[3]
*277 la_oenb[40]
*278 la_oenb[41]
*279 la_oenb[42]
*280 la_oenb[43]
*281 la_oenb[44]
*282 la_oenb[45]
*283 la_oenb[46]
*284 la_oenb[47]
*285 la_oenb[48]
*286 la_oenb[49]
*287 la_oenb[4]
*288 la_oenb[50]
*289 la_oenb[51]
*290 la_oenb[52]
*291 la_oenb[53]
*292 la_oenb[54]
*293 la_oenb[55]
*294 la_oenb[56]
*295 la_oenb[57]
*296 la_oenb[58]
*297 la_oenb[59]
*298 la_oenb[5]
*299 la_oenb[60]
*300 la_oenb[61]
*301 la_oenb[62]
*302 la_oenb[63]
*303 la_oenb[6]
*304 la_oenb[7]
*305 la_oenb[8]
*306 la_oenb[9]
*307 user_clock2
*308 user_irq[0]
*309 user_irq[1]
*310 user_irq[2]
*313 wb_clk_i
*314 wb_rst_i
*315 wbs_ack_o
*316 wbs_adr_i[0]
*317 wbs_adr_i[10]
*318 wbs_adr_i[11]
*319 wbs_adr_i[12]
*320 wbs_adr_i[13]
*321 wbs_adr_i[14]
*322 wbs_adr_i[15]
*323 wbs_adr_i[16]
*324 wbs_adr_i[17]
*325 wbs_adr_i[18]
*326 wbs_adr_i[19]
*327 wbs_adr_i[1]
*328 wbs_adr_i[20]
*329 wbs_adr_i[21]
*330 wbs_adr_i[22]
*331 wbs_adr_i[23]
*332 wbs_adr_i[24]
*333 wbs_adr_i[25]
*334 wbs_adr_i[26]
*335 wbs_adr_i[27]
*336 wbs_adr_i[28]
*337 wbs_adr_i[29]
*338 wbs_adr_i[2]
*339 wbs_adr_i[30]
*340 wbs_adr_i[31]
*341 wbs_adr_i[3]
*342 wbs_adr_i[4]
*343 wbs_adr_i[5]
*344 wbs_adr_i[6]
*345 wbs_adr_i[7]
*346 wbs_adr_i[8]
*347 wbs_adr_i[9]
*348 wbs_cyc_i
*349 wbs_dat_i[0]
*350 wbs_dat_i[10]
*351 wbs_dat_i[11]
*352 wbs_dat_i[12]
*353 wbs_dat_i[13]
*354 wbs_dat_i[14]
*355 wbs_dat_i[15]
*356 wbs_dat_i[16]
*357 wbs_dat_i[17]
*358 wbs_dat_i[18]
*359 wbs_dat_i[19]
*360 wbs_dat_i[1]
*361 wbs_dat_i[20]
*362 wbs_dat_i[21]
*363 wbs_dat_i[22]
*364 wbs_dat_i[23]
*365 wbs_dat_i[24]
*366 wbs_dat_i[25]
*367 wbs_dat_i[26]
*368 wbs_dat_i[27]
*369 wbs_dat_i[28]
*370 wbs_dat_i[29]
*371 wbs_dat_i[2]
*372 wbs_dat_i[30]
*373 wbs_dat_i[31]
*374 wbs_dat_i[3]
*375 wbs_dat_i[4]
*376 wbs_dat_i[5]
*377 wbs_dat_i[6]
*378 wbs_dat_i[7]
*379 wbs_dat_i[8]
*380 wbs_dat_i[9]
*381 wbs_dat_o[0]
*382 wbs_dat_o[10]
*383 wbs_dat_o[11]
*384 wbs_dat_o[12]
*385 wbs_dat_o[13]
*386 wbs_dat_o[14]
*387 wbs_dat_o[15]
*388 wbs_dat_o[16]
*389 wbs_dat_o[17]
*390 wbs_dat_o[18]
*391 wbs_dat_o[19]
*392 wbs_dat_o[1]
*393 wbs_dat_o[20]
*394 wbs_dat_o[21]
*395 wbs_dat_o[22]
*396 wbs_dat_o[23]
*397 wbs_dat_o[24]
*398 wbs_dat_o[25]
*399 wbs_dat_o[26]
*400 wbs_dat_o[27]
*401 wbs_dat_o[28]
*402 wbs_dat_o[29]
*403 wbs_dat_o[2]
*404 wbs_dat_o[30]
*405 wbs_dat_o[31]
*406 wbs_dat_o[3]
*407 wbs_dat_o[4]
*408 wbs_dat_o[5]
*409 wbs_dat_o[6]
*410 wbs_dat_o[7]
*411 wbs_dat_o[8]
*412 wbs_dat_o[9]
*413 wbs_sel_i[0]
*414 wbs_sel_i[1]
*415 wbs_sel_i[2]
*416 wbs_sel_i[3]
*417 wbs_stb_i
*418 wbs_we_i
*419 wrapped_as2650

*PORTS
io_in[0] I
io_in[10] I
io_in[11] I
io_in[12] I
io_in[13] I
io_in[14] I
io_in[15] I
io_in[16] I
io_in[17] I
io_in[18] I
io_in[19] I
io_in[1] I
io_in[20] I
io_in[21] I
io_in[22] I
io_in[23] I
io_in[24] I
io_in[25] I
io_in[26] I
io_in[27] I
io_in[28] I
io_in[29] I
io_in[2] I
io_in[30] I
io_in[31] I
io_in[32] I
io_in[33] I
io_in[34] I
io_in[35] I
io_in[36] I
io_in[37] I
io_in[3] I
io_in[4] I
io_in[5] I
io_in[6] I
io_in[7] I
io_in[8] I
io_in[9] I
io_oeb[0] O
io_oeb[10] O
io_oeb[11] O
io_oeb[12] O
io_oeb[13] O
io_oeb[14] O
io_oeb[15] O
io_oeb[16] O
io_oeb[17] O
io_oeb[18] O
io_oeb[19] O
io_oeb[1] O
io_oeb[20] O
io_oeb[21] O
io_oeb[22] O
io_oeb[23] O
io_oeb[24] O
io_oeb[25] O
io_oeb[26] O
io_oeb[27] O
io_oeb[28] O
io_oeb[29] O
io_oeb[2] O
io_oeb[30] O
io_oeb[31] O
io_oeb[32] O
io_oeb[33] O
io_oeb[34] O
io_oeb[35] O
io_oeb[36] O
io_oeb[37] O
io_oeb[3] O
io_oeb[4] O
io_oeb[5] O
io_oeb[6] O
io_oeb[7] O
io_oeb[8] O
io_oeb[9] O
io_out[0] O
io_out[10] O
io_out[11] O
io_out[12] O
io_out[13] O
io_out[14] O
io_out[15] O
io_out[16] O
io_out[17] O
io_out[18] O
io_out[19] O
io_out[1] O
io_out[20] O
io_out[21] O
io_out[22] O
io_out[23] O
io_out[24] O
io_out[25] O
io_out[26] O
io_out[27] O
io_out[28] O
io_out[29] O
io_out[2] O
io_out[30] O
io_out[31] O
io_out[32] O
io_out[33] O
io_out[34] O
io_out[35] O
io_out[36] O
io_out[37] O
io_out[3] O
io_out[4] O
io_out[5] O
io_out[6] O
io_out[7] O
io_out[8] O
io_out[9] O
la_data_in[0] I
la_data_in[10] I
la_data_in[11] I
la_data_in[12] I
la_data_in[13] I
la_data_in[14] I
la_data_in[15] I
la_data_in[16] I
la_data_in[17] I
la_data_in[18] I
la_data_in[19] I
la_data_in[1] I
la_data_in[20] I
la_data_in[21] I
la_data_in[22] I
la_data_in[23] I
la_data_in[24] I
la_data_in[25] I
la_data_in[26] I
la_data_in[27] I
la_data_in[28] I
la_data_in[29] I
la_data_in[2] I
la_data_in[30] I
la_data_in[31] I
la_data_in[32] I
la_data_in[33] I
la_data_in[34] I
la_data_in[35] I
la_data_in[36] I
la_data_in[37] I
la_data_in[38] I
la_data_in[39] I
la_data_in[3] I
la_data_in[40] I
la_data_in[41] I
la_data_in[42] I
la_data_in[43] I
la_data_in[44] I
la_data_in[45] I
la_data_in[46] I
la_data_in[47] I
la_data_in[48] I
la_data_in[49] I
la_data_in[4] I
la_data_in[50] I
la_data_in[51] I
la_data_in[52] I
la_data_in[53] I
la_data_in[54] I
la_data_in[55] I
la_data_in[56] I
la_data_in[57] I
la_data_in[58] I
la_data_in[59] I
la_data_in[5] I
la_data_in[60] I
la_data_in[61] I
la_data_in[62] I
la_data_in[63] I
la_data_in[6] I
la_data_in[7] I
la_data_in[8] I
la_data_in[9] I
la_data_out[0] O
la_data_out[10] O
la_data_out[11] O
la_data_out[12] O
la_data_out[13] O
la_data_out[14] O
la_data_out[15] O
la_data_out[16] O
la_data_out[17] O
la_data_out[18] O
la_data_out[19] O
la_data_out[1] O
la_data_out[20] O
la_data_out[21] O
la_data_out[22] O
la_data_out[23] O
la_data_out[24] O
la_data_out[25] O
la_data_out[26] O
la_data_out[27] O
la_data_out[28] O
la_data_out[29] O
la_data_out[2] O
la_data_out[30] O
la_data_out[31] O
la_data_out[32] O
la_data_out[33] O
la_data_out[34] O
la_data_out[35] O
la_data_out[36] O
la_data_out[37] O
la_data_out[38] O
la_data_out[39] O
la_data_out[3] O
la_data_out[40] O
la_data_out[41] O
la_data_out[42] O
la_data_out[43] O
la_data_out[44] O
la_data_out[45] O
la_data_out[46] O
la_data_out[47] O
la_data_out[48] O
la_data_out[49] O
la_data_out[4] O
la_data_out[50] O
la_data_out[51] O
la_data_out[52] O
la_data_out[53] O
la_data_out[54] O
la_data_out[55] O
la_data_out[56] O
la_data_out[57] O
la_data_out[58] O
la_data_out[59] O
la_data_out[5] O
la_data_out[60] O
la_data_out[61] O
la_data_out[62] O
la_data_out[63] O
la_data_out[6] O
la_data_out[7] O
la_data_out[8] O
la_data_out[9] O
la_oenb[0] I
la_oenb[10] I
la_oenb[11] I
la_oenb[12] I
la_oenb[13] I
la_oenb[14] I
la_oenb[15] I
la_oenb[16] I
la_oenb[17] I
la_oenb[18] I
la_oenb[19] I
la_oenb[1] I
la_oenb[20] I
la_oenb[21] I
la_oenb[22] I
la_oenb[23] I
la_oenb[24] I
la_oenb[25] I
la_oenb[26] I
la_oenb[27] I
la_oenb[28] I
la_oenb[29] I
la_oenb[2] I
la_oenb[30] I
la_oenb[31] I
la_oenb[32] I
la_oenb[33] I
la_oenb[34] I
la_oenb[35] I
la_oenb[36] I
la_oenb[37] I
la_oenb[38] I
la_oenb[39] I
la_oenb[3] I
la_oenb[40] I
la_oenb[41] I
la_oenb[42] I
la_oenb[43] I
la_oenb[44] I
la_oenb[45] I
la_oenb[46] I
la_oenb[47] I
la_oenb[48] I
la_oenb[49] I
la_oenb[4] I
la_oenb[50] I
la_oenb[51] I
la_oenb[52] I
la_oenb[53] I
la_oenb[54] I
la_oenb[55] I
la_oenb[56] I
la_oenb[57] I
la_oenb[58] I
la_oenb[59] I
la_oenb[5] I
la_oenb[60] I
la_oenb[61] I
la_oenb[62] I
la_oenb[63] I
la_oenb[6] I
la_oenb[7] I
la_oenb[8] I
la_oenb[9] I
user_clock2 I
user_irq[0] O
user_irq[1] O
user_irq[2] O
wb_clk_i I
wb_rst_i I
wbs_ack_o O
wbs_adr_i[0] I
wbs_adr_i[10] I
wbs_adr_i[11] I
wbs_adr_i[12] I
wbs_adr_i[13] I
wbs_adr_i[14] I
wbs_adr_i[15] I
wbs_adr_i[16] I
wbs_adr_i[17] I
wbs_adr_i[18] I
wbs_adr_i[19] I
wbs_adr_i[1] I
wbs_adr_i[20] I
wbs_adr_i[21] I
wbs_adr_i[22] I
wbs_adr_i[23] I
wbs_adr_i[24] I
wbs_adr_i[25] I
wbs_adr_i[26] I
wbs_adr_i[27] I
wbs_adr_i[28] I
wbs_adr_i[29] I
wbs_adr_i[2] I
wbs_adr_i[30] I
wbs_adr_i[31] I
wbs_adr_i[3] I
wbs_adr_i[4] I
wbs_adr_i[5] I
wbs_adr_i[6] I
wbs_adr_i[7] I
wbs_adr_i[8] I
wbs_adr_i[9] I
wbs_cyc_i I
wbs_dat_i[0] I
wbs_dat_i[10] I
wbs_dat_i[11] I
wbs_dat_i[12] I
wbs_dat_i[13] I
wbs_dat_i[14] I
wbs_dat_i[15] I
wbs_dat_i[16] I
wbs_dat_i[17] I
wbs_dat_i[18] I
wbs_dat_i[19] I
wbs_dat_i[1] I
wbs_dat_i[20] I
wbs_dat_i[21] I
wbs_dat_i[22] I
wbs_dat_i[23] I
wbs_dat_i[24] I
wbs_dat_i[25] I
wbs_dat_i[26] I
wbs_dat_i[27] I
wbs_dat_i[28] I
wbs_dat_i[29] I
wbs_dat_i[2] I
wbs_dat_i[30] I
wbs_dat_i[31] I
wbs_dat_i[3] I
wbs_dat_i[4] I
wbs_dat_i[5] I
wbs_dat_i[6] I
wbs_dat_i[7] I
wbs_dat_i[8] I
wbs_dat_i[9] I
wbs_dat_o[0] O
wbs_dat_o[10] O
wbs_dat_o[11] O
wbs_dat_o[12] O
wbs_dat_o[13] O
wbs_dat_o[14] O
wbs_dat_o[15] O
wbs_dat_o[16] O
wbs_dat_o[17] O
wbs_dat_o[18] O
wbs_dat_o[19] O
wbs_dat_o[1] O
wbs_dat_o[20] O
wbs_dat_o[21] O
wbs_dat_o[22] O
wbs_dat_o[23] O
wbs_dat_o[24] O
wbs_dat_o[25] O
wbs_dat_o[26] O
wbs_dat_o[27] O
wbs_dat_o[28] O
wbs_dat_o[29] O
wbs_dat_o[2] O
wbs_dat_o[30] O
wbs_dat_o[31] O
wbs_dat_o[3] O
wbs_dat_o[4] O
wbs_dat_o[5] O
wbs_dat_o[6] O
wbs_dat_o[7] O
wbs_dat_o[8] O
wbs_dat_o[9] O
wbs_sel_i[0] I
wbs_sel_i[1] I
wbs_sel_i[2] I
wbs_sel_i[3] I
wbs_stb_i I
wbs_we_i I

*D_NET *1 0.487918
*CONN
*P io_in[0] I
*I *419:io_in[0] I *D wrapped_as2650
*CAP
1 io_in[0] 0.00466579
2 *419:io_in[0] 0.00023556
3 *1:12 0.0568557
4 *1:11 0.0566202
5 *1:9 0.0692184
6 *1:7 0.0738841
7 *1:9 *314:8 0
8 *1:12 *99:11 0.226438
*RES
1 io_in[0] *1:7 37.305 
2 *1:7 *1:9 542.7 
3 *1:9 *1:11 4.5 
4 *1:11 *1:12 724.05 
5 *1:12 *419:io_in[0] 1.845 
*END

*D_NET *2 0.25533
*CONN
*P io_in[10] I
*I *419:io_in[10] I *D wrapped_as2650
*CAP
1 io_in[10] 0.000276945
2 *419:io_in[10] 0.00020158
3 *2:11 0.046147
4 *2:10 0.0459454
5 *2:8 0.00579667
6 *2:7 0.00607362
7 *419:io_in[10] *40:13 0
8 *2:8 *38:8 0.0347619
9 *2:11 *419:io_in[37] 0
10 *2:11 *58:5 0
11 *2:11 *68:16 0.00205193
12 *2:11 *69:10 0.00407463
13 *2:11 *108:14 0
14 *2:11 *112:8 0.110001
*RES
1 io_in[10] *2:7 6.705 
2 *2:7 *2:8 88.47 
3 *2:8 *2:10 4.5 
4 *2:10 *2:11 499.77 
5 *2:11 *419:io_in[10] 5.985 
*END

*D_NET *3 0.250439
*CONN
*P io_in[11] I
*I *419:io_in[11] I *D wrapped_as2650
*CAP
1 io_in[11] 0.000363112
2 *419:io_in[11] 0.000357413
3 *3:19 0.00391207
4 *3:18 0.00725946
5 *3:13 0.0470164
6 *3:11 0.0436747
7 *419:io_in[11] *41:9 0
8 *3:18 *31:16 0
9 *3:18 *107:13 0
10 *3:18 *108:13 0
11 *3:19 *20:13 0.000923697
12 *3:19 *24:19 0.056874
13 *3:19 *28:19 0.00548581
14 *3:19 *50:8 0
15 *3:19 *68:16 0.00139578
16 *3:19 *79:8 0.0783803
17 *3:19 *112:8 0.00479597
*RES
1 io_in[11] *3:11 3.195 
2 *3:11 *3:13 272.97 
3 *3:13 *3:18 36.99 
4 *3:18 *3:19 221.49 
5 *3:19 *419:io_in[11] 6.705 
*END

*D_NET *4 0.148446
*CONN
*P io_in[12] I
*I *419:io_in[12] I *D wrapped_as2650
*CAP
1 io_in[12] 0.000167227
2 *419:io_in[12] 0.00534555
3 *4:19 0.0112761
4 *4:18 0.00644649
5 *4:13 0.0555443
6 *4:11 0.0551956
7 *419:io_in[12] *79:7 0
8 *4:13 *7:14 0
9 *4:13 *13:8 0
10 *4:13 *82:16 0
11 *4:18 *419:io_in[20] 0
12 *4:18 *51:11 0.0025123
13 *4:19 *6:11 0.00419776
14 *4:19 *47:10 0.00665195
15 *4:19 *98:14 0.00110865
16 *4:19 *114:14 0
*RES
1 io_in[12] *4:11 2.115 
2 *4:11 *4:13 429.39 
3 *4:13 *4:18 15.57 
4 *4:18 *4:19 58.23 
5 *4:19 *419:io_in[12] 37.935 
*END

*D_NET *5 0.205794
*CONN
*P io_in[13] I
*I *419:io_in[13] I *D wrapped_as2650
*CAP
1 io_in[13] 0.000488137
2 *419:io_in[13] 0.00177508
3 *5:11 0.0516388
4 *5:10 0.0498637
5 *5:8 0.00246378
6 *5:7 0.00295192
7 *419:io_in[13] *42:11 0.000101608
8 *5:8 *6:8 0.00045778
9 *5:8 *7:11 0.0260592
10 *5:8 *23:8 0.00058768
11 *5:8 *43:11 0.027122
12 *5:8 *61:13 0.00232392
13 *5:8 *70:11 0.000217912
14 *5:11 *16:14 0.0168145
15 *5:11 *23:11 0
16 *5:11 *25:15 0.0166215
17 *5:11 *71:8 0.0063062
18 *5:11 *88:8 0
*RES
1 io_in[13] *5:7 8.325 
2 *5:7 *5:8 93.33 
3 *5:8 *5:10 4.5 
4 *5:10 *5:11 475.47 
5 *5:11 *419:io_in[13] 15.165 
*END

*D_NET *6 0.25374
*CONN
*P io_in[14] I
*I *419:io_in[14] I *D wrapped_as2650
*CAP
1 io_in[14] 0.000661499
2 *419:io_in[14] 0.00540151
3 *6:11 0.0597724
4 *6:10 0.0543709
5 *6:8 0.00933192
6 *6:7 0.00999342
7 *419:io_in[14] *44:13 0
8 *419:io_in[14] *80:15 0.0002198
9 *419:io_in[14] *81:14 0
10 *6:8 *7:11 0.00249159
11 *6:8 *43:11 0.0438258
12 *6:11 *47:10 0.0548804
13 *6:11 *114:14 0.00813519
14 *4:19 *6:11 0.00419776
15 *5:8 *6:8 0.00045778
*RES
1 io_in[14] *6:7 8.685 
2 *6:7 *6:8 135.45 
3 *6:8 *6:10 4.5 
4 *6:10 *6:11 469.71 
5 *6:11 *419:io_in[14] 39.195 
*END

*D_NET *7 0.214153
*CONN
*P io_in[15] I
*I *419:io_in[15] I *D wrapped_as2650
*CAP
1 io_in[15] 0.00281871
2 *419:io_in[15] 0.0062441
3 *7:14 0.0632611
4 *7:13 0.057017
5 *7:11 0.0152125
6 *7:10 0.0180312
7 *7:11 *43:11 0.00753363
8 *7:14 *82:16 0.0154839
9 *7:14 *103:14 0
10 *4:13 *7:14 0
11 *5:8 *7:11 0.0260592
12 *6:8 *7:11 0.00249159
*RES
1 io_in[15] *7:10 31.635 
2 *7:10 *7:11 175.05 
3 *7:11 *7:13 4.5 
4 *7:13 *7:14 462.33 
5 *7:14 *419:io_in[15] 44.235 
*END

*D_NET *8 0.1464
*CONN
*P io_in[16] I
*I *419:io_in[16] I *D wrapped_as2650
*CAP
1 io_in[16] 0.000247817
2 *419:io_in[16] 0.000166616
3 *8:19 0.00836104
4 *8:18 0.00819442
5 *8:16 0.0427907
6 *8:15 0.0427907
7 *8:13 0.0218005
8 *8:11 0.0220483
9 *8:19 *83:10 0
10 *8:19 *83:11 0
*RES
1 io_in[16] *8:11 2.655 
2 *8:11 *8:13 167.67 
3 *8:13 *8:15 4.5 
4 *8:15 *8:16 332.19 
5 *8:16 *8:18 4.5 
6 *8:18 *8:19 53.91 
7 *8:19 *419:io_in[16] 1.305 
*END

*D_NET *9 0.116913
*CONN
*P io_in[17] I
*I *419:io_in[17] I *D wrapped_as2650
*CAP
1 io_in[17] 0.0013584
2 *419:io_in[17] 9.76714e-05
3 *9:17 0.00976212
4 *9:16 0.00966445
5 *9:14 0.0279682
6 *9:13 0.0279682
7 *9:11 0.0192768
8 *9:10 0.0206352
9 *9:10 *46:14 0.000181847
10 *9:17 *46:11 0
*RES
1 io_in[17] *9:10 19.935 
2 *9:10 *9:11 148.05 
3 *9:11 *9:13 4.5 
4 *9:13 *9:14 217.35 
5 *9:14 *9:16 4.5 
6 *9:16 *9:17 64.71 
7 *9:17 *419:io_in[17] 0.765 
*END

*D_NET *10 0.109699
*CONN
*P io_in[18] I
*I *419:io_in[18] I *D wrapped_as2650
*CAP
1 io_in[18] 0.00109084
2 *419:io_in[18] 0.00243685
3 *10:19 0.00602823
4 *10:11 0.0291507
5 *10:10 0.0255593
6 *10:8 0.00498322
7 *10:7 0.00607406
8 *10:8 io_oeb[18] 0.000372757
9 *10:8 *46:14 0.0305306
10 *10:11 *15:15 0
11 *10:19 *78:14 0.00347247
12 *10:19 *100:14 0
*RES
1 io_in[18] *10:7 12.825 
2 *10:7 *10:8 76.59 
3 *10:8 *10:10 4.5 
4 *10:10 *10:11 191.79 
5 *10:11 *10:19 44.46 
6 *10:19 *419:io_in[18] 14.715 
*END

*D_NET *11 0.063004
*CONN
*P io_in[19] I
*I *419:io_in[19] I *D wrapped_as2650
*CAP
1 io_in[19] 0.00216352
2 *419:io_in[19] 0.00275321
3 *11:11 0.0293385
4 *11:10 0.0287488
5 *419:io_in[19] *86:7 0
6 *11:10 *46:14 0
*RES
1 io_in[19] *11:10 25.695 
2 *11:10 *11:11 197.1 
3 *11:11 *419:io_in[19] 17.055 
*END

*D_NET *12 0.89673
*CONN
*P io_in[1] I
*I *419:io_in[1] I *D wrapped_as2650
*CAP
1 io_in[1] 0.000492522
2 *419:io_in[1] 0.00120343
3 *12:11 0.0188446
4 *12:10 0.0176411
5 *12:8 0.00318567
6 *12:7 0.00367819
7 *12:8 *23:8 0.000500002
8 *12:8 *39:11 0.26225
9 *12:8 *50:11 0.24448
10 *12:11 *26:19 0.010507
11 *12:11 *39:8 0.225147
12 *12:11 *113:8 0.1088
*RES
1 io_in[1] *12:7 8.505 
2 *12:7 *12:8 667.35 
3 *12:8 *12:10 4.5 
4 *12:10 *12:11 566.01 
5 *12:11 *419:io_in[1] 11.385 
*END

*D_NET *13 0.092481
*CONN
*P io_in[20] I
*I *419:io_in[20] I *D wrapped_as2650
*CAP
1 io_in[20] 0.0236998
2 *419:io_in[20] 0.00668894
3 *13:8 0.0225407
4 *13:7 0.0158518
5 *13:5 0.0236998
6 *419:io_in[20] *51:11 0
7 *419:io_in[20] *82:17 0
8 *4:13 *13:8 0
9 *4:18 *419:io_in[20] 0
*RES
1 io_in[20] *13:5 181.125 
2 *13:5 *13:7 4.5 
3 *13:7 *13:8 121.59 
4 *13:8 *419:io_in[20] 46.935 
*END

*D_NET *14 0.121273
*CONN
*P io_in[21] I
*I *419:io_in[21] I *D wrapped_as2650
*CAP
1 io_in[21] 0.00133604
2 *419:io_in[21] 0.000166616
3 *14:17 0.0162473
4 *14:16 0.0160807
5 *14:14 0.0299697
6 *14:13 0.0299697
7 *14:11 0.0129563
8 *14:10 0.0142924
9 *14:10 *16:8 0.000254726
10 *14:14 *94:14 0
*RES
1 io_in[21] *14:10 19.935 
2 *14:10 *14:11 99.45 
3 *14:11 *14:13 4.5 
4 *14:13 *14:14 233.73 
5 *14:14 *14:16 4.5 
6 *14:16 *14:17 113.31 
7 *14:17 *419:io_in[21] 1.305 
*END

*D_NET *15 0.150553
*CONN
*P io_in[22] I
*I *419:io_in[22] I *D wrapped_as2650
*CAP
1 io_in[22] 0.00485065
2 *419:io_in[22] 9.76714e-05
3 *15:15 0.00863281
4 *15:14 0.00853514
5 *15:12 0.0450609
6 *15:11 0.0450609
7 *15:9 0.0167322
8 *15:7 0.0215829
9 *15:15 *48:11 0
10 *15:15 *90:7 0
11 *10:11 *15:15 0
*RES
1 io_in[22] *15:7 37.305 
2 *15:7 *15:9 128.34 
3 *15:9 *15:11 4.5 
4 *15:11 *15:12 351.09 
5 *15:12 *15:14 4.5 
6 *15:14 *15:15 56.61 
7 *15:15 *419:io_in[22] 0.765 
*END

*D_NET *16 0.194136
*CONN
*P io_in[23] I
*I *419:io_in[23] I *D wrapped_as2650
*CAP
1 io_in[23] 0.00107486
2 *419:io_in[23] 0.00183012
3 *16:14 0.00468098
4 *16:11 0.030156
5 *16:10 0.0273052
6 *16:8 0.0521519
7 *16:7 0.0532268
8 *16:8 *46:14 0.00111452
9 *16:8 *87:22 0.00552644
10 *16:11 *47:9 0
11 *16:11 *85:7 0
12 *16:14 *23:11 0
13 *5:11 *16:14 0.0168145
14 *14:10 *16:8 0.000254726
*RES
1 io_in[23] *16:7 12.825 
2 *16:7 *16:8 422.73 
3 *16:8 *16:10 4.5 
4 *16:10 *16:11 202.41 
5 *16:11 *16:14 46.71 
6 *16:14 *419:io_in[23] 15.345 
*END

*D_NET *17 0.235003
*CONN
*P io_in[24] I
*I *419:io_in[24] I *D wrapped_as2650
*CAP
1 io_in[24] 0.000201168
2 *419:io_in[24] 0.00178017
3 *17:16 0.0285426
4 *17:15 0.0267624
5 *17:13 0.0880048
6 *17:11 0.0882059
7 *419:io_in[24] *21:19 0.001506
8 *419:io_in[24] *55:9 0
9 *419:io_in[24] *88:8 0
10 *17:13 *83:14 0
11 *17:16 *54:7 0
*RES
1 io_in[24] *17:11 1.935 
2 *17:11 *17:13 557.01 
3 *17:13 *17:15 4.5 
4 *17:15 *17:16 198.63 
5 *17:16 *419:io_in[24] 20.835 
*END

*D_NET *18 0.184737
*CONN
*P io_in[25] I
*I *419:io_in[25] I *D wrapped_as2650
*CAP
1 io_in[25] 0.00117627
2 *419:io_in[25] 0.00256257
3 *18:16 0.00905561
4 *18:11 0.0781263
5 *18:10 0.0716332
6 *18:8 0.0105034
7 *18:7 0.0116797
8 *18:11 *80:16 0
*RES
1 io_in[25] *18:7 13.365 
2 *18:7 *18:8 80.55 
3 *18:8 *18:10 4.5 
4 *18:10 *18:11 557.73 
5 *18:11 *18:16 49.77 
6 *18:16 *419:io_in[25] 16.065 
*END

*D_NET *19 0.168783
*CONN
*P io_in[26] I
*I *419:io_in[26] I *D wrapped_as2650
*CAP
1 io_in[26] 0.00179421
2 *419:io_in[26] 0.000166616
3 *19:12 0.0105926
4 *19:11 0.010426
5 *19:9 0.0720048
6 *19:7 0.073799
7 *19:9 *53:10 0
*RES
1 io_in[26] *19:7 13.185 
2 *19:7 *19:9 561.78 
3 *19:9 *19:11 4.5 
4 *19:11 *19:12 71.55 
5 *19:12 *419:io_in[26] 1.305 
*END

*D_NET *20 0.187553
*CONN
*P io_in[27] I
*I *419:io_in[27] I *D wrapped_as2650
*CAP
1 io_in[27] 0.000185335
2 *419:io_in[27] 0.000472816
3 *20:13 0.0642111
4 *20:11 0.0639236
5 *20:13 *24:19 0.0112189
6 *20:13 *28:19 0.000735034
7 *20:13 *50:8 0
8 *20:13 *60:8 0
9 *20:13 *79:8 0.0458827
10 *3:19 *20:13 0.000923697
*RES
1 io_in[27] *20:11 1.755 
2 *20:11 *20:13 583.47 
3 *20:13 *419:io_in[27] 7.065 
*END

*D_NET *21 0.235524
*CONN
*P io_in[28] I
*I *419:io_in[28] I *D wrapped_as2650
*CAP
1 io_in[28] 0.000249598
2 *419:io_in[28] 0.00126375
3 *21:19 0.0159997
4 *21:18 0.0147359
5 *21:16 0.00980154
6 *21:15 0.00980154
7 *21:13 0.0483676
8 *21:11 0.0486172
9 *21:16 *77:11 0
10 *21:16 *99:11 0
11 *21:19 *22:19 0.0851812
12 *21:19 *30:15 0
13 *21:19 *88:8 0
14 *419:io_in[24] *21:19 0.001506
*RES
1 io_in[28] *21:11 2.475 
2 *21:11 *21:13 376.11 
3 *21:13 *21:15 4.5 
4 *21:15 *21:16 74.07 
5 *21:16 *21:18 4.5 
6 *21:18 *21:19 215.01 
7 *21:19 *419:io_in[28] 12.285 
*END

*D_NET *22 0.300606
*CONN
*P io_in[29] I
*I *419:io_in[29] I *D wrapped_as2650
*CAP
1 io_in[29] 0.000177869
2 *419:io_in[29] 0.00122479
3 *22:19 0.00358256
4 *22:18 0.00235777
5 *22:16 0.0184789
6 *22:15 0.0184789
7 *22:13 0.0479713
8 *22:11 0.0481492
9 *22:16 *77:11 0
10 *22:19 *26:19 0.0120627
11 *22:19 *37:11 0.0629411
12 *22:19 *88:8 0
13 *21:19 *22:19 0.0851812
*RES
1 io_in[29] *22:11 1.935 
2 *22:11 *22:13 373.41 
3 *22:13 *22:15 4.5 
4 *22:15 *22:16 141.39 
5 *22:16 *22:18 4.5 
6 *22:18 *22:19 225.27 
7 *22:19 *419:io_in[29] 12.105 
*END

*D_NET *23 0.695463
*CONN
*P io_in[2] I
*I *419:io_in[2] I *D wrapped_as2650
*CAP
1 io_in[2] 0.000449407
2 *419:io_in[2] 0.0018665
3 *23:11 0.0410959
4 *23:10 0.0392294
5 *23:8 0.00339075
6 *23:7 0.00384015
7 *23:8 *50:11 0.236132
8 *23:8 *61:13 0.222619
9 *23:11 *34:11 0.0657862
10 *23:11 *97:8 0.0799663
11 *5:8 *23:8 0.00058768
12 *5:11 *23:11 0
13 *12:8 *23:8 0.000500002
14 *16:14 *23:11 0
*RES
1 io_in[2] *23:7 8.145 
2 *23:7 *23:8 608.85 
3 *23:8 *23:10 4.5 
4 *23:10 *23:11 558.81 
5 *23:11 *419:io_in[2] 16.605 
*END

*D_NET *24 0.316193
*CONN
*P io_in[30] I
*I *419:io_in[30] I *D wrapped_as2650
*CAP
1 io_in[30] 0.000113196
2 *419:io_in[30] 0.000318455
3 *24:19 0.00331141
4 *24:18 0.00299295
5 *24:16 0.0263893
6 *24:15 0.0263893
7 *24:13 0.0475874
8 *24:11 0.0477006
9 *24:19 *28:19 0.0932974
10 *3:19 *24:19 0.056874
11 *20:13 *24:19 0.0112189
*RES
1 io_in[30] *24:11 1.395 
2 *24:11 *24:13 370.71 
3 *24:13 *24:15 4.5 
4 *24:15 *24:16 203.31 
5 *24:16 *24:18 4.5 
6 *24:18 *24:19 235.53 
7 *24:19 *419:io_in[30] 6.525 
*END

*D_NET *25 0.304662
*CONN
*P io_in[31] I
*I *419:io_in[31] I *D wrapped_as2650
*CAP
1 io_in[31] 0.00177706
2 *419:io_in[31] 0.00156477
3 *25:15 0.012208
4 *25:14 0.0106432
5 *25:12 0.0363302
6 *25:11 0.0363302
7 *25:9 0.0454758
8 *25:7 0.0472529
9 *419:io_in[31] *63:9 0
10 *25:15 *62:8 0.0955936
11 *25:15 *71:8 0.000864811
12 *5:11 *25:15 0.0166215
*RES
1 io_in[31] *25:7 13.185 
2 *25:7 *25:9 355.14 
3 *25:9 *25:11 4.5 
4 *25:11 *25:12 278.91 
5 *25:12 *25:14 4.5 
6 *25:14 *25:15 245.79 
7 *25:15 *419:io_in[31] 14.625 
*END

*D_NET *26 0.359235
*CONN
*P io_in[32] I
*I *419:io_in[32] I *D wrapped_as2650
*CAP
1 io_in[32] 0.000323383
2 *419:io_in[32] 0.00111721
3 *26:19 0.00641405
4 *26:18 0.00529684
5 *26:16 0.0449757
6 *26:15 0.0449757
7 *26:13 0.0453875
8 *26:11 0.0457109
9 *26:19 *37:11 0.0719173
10 *26:19 *39:8 0.00062241
11 *26:19 *90:8 0
12 *26:19 *113:8 0.0699241
13 *12:11 *26:19 0.010507
14 *22:19 *26:19 0.0120627
*RES
1 io_in[32] *26:11 3.015 
2 *26:11 *26:13 354.51 
3 *26:13 *26:15 4.5 
4 *26:15 *26:16 346.23 
5 *26:16 *26:18 4.5 
6 *26:18 *26:19 266.85 
7 *26:19 *419:io_in[32] 11.745 
*END

*D_NET *27 0.397578
*CONN
*P io_in[33] I
*I *419:io_in[33] I *D wrapped_as2650
*CAP
1 io_in[33] 0.000242542
2 *419:io_in[33] 0.00234551
3 *27:19 0.00801435
4 *27:18 0.00566884
5 *27:16 0.0548971
6 *27:15 0.0548971
7 *27:13 0.0467996
8 *27:11 0.0470422
9 *27:19 *36:19 0.00198339
10 *27:19 *38:11 0.00246489
11 *27:19 *63:10 0.0993073
12 *27:19 *75:14 0.0739154
*RES
1 io_in[33] *27:11 2.475 
2 *27:11 *27:13 365.31 
3 *27:13 *27:15 4.5 
4 *27:15 *27:16 421.83 
5 *27:16 *27:18 4.5 
6 *27:18 *27:19 263.43 
7 *27:19 *419:io_in[33] 20.205 
*END

*D_NET *28 0.410523
*CONN
*P io_in[34] I
*I *419:io_in[34] I *D wrapped_as2650
*CAP
1 io_in[34] 0.000177869
2 *419:io_in[34] 0.000279497
3 *28:19 0.00564826
4 *28:18 0.00536876
5 *28:16 0.0616791
6 *28:15 0.0616791
7 *28:13 0.0464205
8 *28:11 0.0465984
9 *28:19 *77:10 0.000331772
10 *28:19 *99:10 0.00399602
11 *28:19 *112:8 0.0788252
12 *3:19 *28:19 0.00548581
13 *20:13 *28:19 0.000735034
14 *24:19 *28:19 0.0932974
*RES
1 io_in[34] *28:11 1.935 
2 *28:11 *28:13 362.61 
3 *28:13 *28:15 4.5 
4 *28:15 *28:16 475.83 
5 *28:16 *28:18 4.5 
6 *28:18 *28:19 273.87 
7 *28:19 *419:io_in[34] 6.345 
*END

*D_NET *29 0.453769
*CONN
*P io_in[35] I
*I *419:io_in[35] I *D wrapped_as2650
*CAP
1 io_in[35] 0.000113196
2 *419:io_in[35] 0.0032958
3 *29:19 0.0088686
4 *29:18 0.0055728
5 *29:16 0.0730819
6 *29:15 0.0730819
7 *29:13 0.0460366
8 *29:11 0.0461498
9 *29:19 *35:11 0.000417591
10 *29:19 *73:10 0.0858441
11 *29:19 *104:14 0.111307
*RES
1 io_in[35] *29:11 1.395 
2 *29:11 *29:13 359.91 
3 *29:13 *29:15 4.5 
4 *29:15 *29:16 562.05 
5 *29:16 *29:18 4.5 
6 *29:18 *29:19 282.33 
7 *29:19 *419:io_in[35] 27.135 
*END

*D_NET *30 0.471401
*CONN
*P io_in[36] I
*I *419:io_in[36] I *D wrapped_as2650
*CAP
1 io_in[36] 0.00177706
2 *419:io_in[36] 0.00143191
3 *30:15 0.00624732
4 *30:14 0.00481541
5 *30:12 0.0802799
6 *30:11 0.0802799
7 *30:9 0.0427177
8 *30:7 0.0444947
9 *30:15 *62:8 0.0114942
10 *30:15 *71:8 0.0949148
11 *30:15 *88:8 0.102948
12 *21:19 *30:15 0
*RES
1 io_in[36] *30:7 13.185 
2 *30:7 *30:9 336.24 
3 *30:9 *30:11 4.5 
4 *30:11 *30:12 618.57 
5 *30:12 *30:14 4.5 
6 *30:14 *30:15 302.49 
7 *30:15 *419:io_in[36] 14.085 
*END

*D_NET *31 0.357232
*CONN
*P io_in[37] I
*I *419:io_in[37] I *D wrapped_as2650
*CAP
1 io_in[37] 0.000323383
2 *419:io_in[37] 0.00293589
3 *31:16 0.0908889
4 *31:15 0.087953
5 *31:13 0.0871433
6 *31:11 0.0874667
7 *419:io_in[37] *68:16 0
8 *419:io_in[37] *69:10 0
9 *419:io_in[37] *107:12 0.00052077
10 *31:16 *37:8 0
11 *2:11 *419:io_in[37] 0
12 *3:18 *31:16 0
*RES
1 io_in[37] *31:11 3.015 
2 *31:11 *31:13 682.65 
3 *31:13 *31:15 4.5 
4 *31:15 *31:16 679.05 
5 *31:16 *419:io_in[37] 32.67 
*END

*D_NET *32 0.769671
*CONN
*P io_in[3] I
*I *419:io_in[3] I *D wrapped_as2650
*CAP
1 io_in[3] 0.000406292
2 *419:io_in[3] 0.00271033
3 *32:11 0.0263104
4 *32:10 0.0236001
5 *32:8 0.00311452
6 *32:7 0.00352081
7 *32:8 *61:13 0.216426
8 *32:8 *70:11 0.199722
9 *32:11 *41:10 0.195104
10 *32:11 *65:14 0.0912546
11 *32:11 *72:14 0.00750318
*RES
1 io_in[3] *32:7 7.785 
2 *32:7 *32:8 550.71 
3 *32:8 *32:10 4.5 
4 *32:10 *32:11 551.79 
5 *32:11 *419:io_in[3] 22.545 
*END

*D_NET *33 0.649147
*CONN
*P io_in[4] I
*I *419:io_in[4] I *D wrapped_as2650
*CAP
1 io_in[4] 0.00045608
2 *419:io_in[4] 0.00378639
3 *33:11 0.0539692
4 *33:10 0.0501828
5 *33:8 0.00474708
6 *33:7 0.00520316