*SPEF "ieee 1481-1999"
*DESIGN "user_project_wrapper"
*DATE "11:11:11 Fri 11 11, 1111"
*VENDOR "OpenRCX"
*PROGRAM "Parallel Extraction"
*VERSION "1.0"
*DESIGN_FLOW "NAME_SCOPE LOCAL" "PIN_CAP NONE"
*DIVIDER /
*DELIMITER :
*BUS_DELIMITER []
*T_UNIT 1 NS
*C_UNIT 1 PF
*R_UNIT 1 OHM
*L_UNIT 1 HENRY

*NAME_MAP
*1 io_in[0]
*2 io_in[10]
*3 io_in[11]
*4 io_in[12]
*5 io_in[13]
*6 io_in[14]
*7 io_in[15]
*8 io_in[16]
*9 io_in[17]
*10 io_in[18]
*11 io_in[19]
*12 io_in[1]
*13 io_in[20]
*14 io_in[21]
*15 io_in[22]
*16 io_in[23]
*17 io_in[24]
*18 io_in[25]
*19 io_in[26]
*20 io_in[27]
*21 io_in[28]
*22 io_in[29]
*23 io_in[2]
*24 io_in[30]
*25 io_in[31]
*26 io_in[32]
*27 io_in[33]
*28 io_in[34]
*29 io_in[35]
*30 io_in[36]
*31 io_in[37]
*32 io_in[3]
*33 io_in[4]
*34 io_in[5]
*35 io_in[6]
*36 io_in[7]
*37 io_in[8]
*38 io_in[9]
*39 io_oeb[0]
*40 io_oeb[10]
*41 io_oeb[11]
*42 io_oeb[12]
*43 io_oeb[13]
*44 io_oeb[14]
*45 io_oeb[15]
*46 io_oeb[16]
*47 io_oeb[17]
*48 io_oeb[18]
*49 io_oeb[19]
*50 io_oeb[1]
*51 io_oeb[20]
*52 io_oeb[21]
*53 io_oeb[22]
*54 io_oeb[23]
*55 io_oeb[24]
*56 io_oeb[25]
*57 io_oeb[26]
*58 io_oeb[27]
*59 io_oeb[28]
*60 io_oeb[29]
*61 io_oeb[2]
*62 io_oeb[30]
*63 io_oeb[31]
*64 io_oeb[32]
*65 io_oeb[33]
*66 io_oeb[34]
*67 io_oeb[35]
*68 io_oeb[36]
*69 io_oeb[37]
*70 io_oeb[3]
*71 io_oeb[4]
*72 io_oeb[5]
*73 io_oeb[6]
*74 io_oeb[7]
*75 io_oeb[8]
*76 io_oeb[9]
*77 io_out[0]
*78 io_out[10]
*79 io_out[11]
*80 io_out[12]
*81 io_out[13]
*82 io_out[14]
*83 io_out[15]
*84 io_out[16]
*85 io_out[17]
*86 io_out[18]
*87 io_out[19]
*88 io_out[1]
*89 io_out[20]
*90 io_out[21]
*91 io_out[22]
*92 io_out[23]
*93 io_out[24]
*94 io_out[25]
*95 io_out[26]
*96 io_out[27]
*97 io_out[28]
*98 io_out[29]
*99 io_out[2]
*100 io_out[30]
*101 io_out[31]
*102 io_out[32]
*103 io_out[33]
*104 io_out[34]
*105 io_out[35]
*106 io_out[36]
*107 io_out[37]
*108 io_out[3]
*109 io_out[4]
*110 io_out[5]
*111 io_out[6]
*112 io_out[7]
*113 io_out[8]
*114 io_out[9]
*115 la_data_in[0]
*116 la_data_in[10]
*117 la_data_in[11]
*118 la_data_in[12]
*119 la_data_in[13]
*120 la_data_in[14]
*121 la_data_in[15]
*122 la_data_in[16]
*123 la_data_in[17]
*124 la_data_in[18]
*125 la_data_in[19]
*126 la_data_in[1]
*127 la_data_in[20]
*128 la_data_in[21]
*129 la_data_in[22]
*130 la_data_in[23]
*131 la_data_in[24]
*132 la_data_in[25]
*133 la_data_in[26]
*134 la_data_in[27]
*135 la_data_in[28]
*136 la_data_in[29]
*137 la_data_in[2]
*138 la_data_in[30]
*139 la_data_in[31]
*140 la_data_in[32]
*141 la_data_in[33]
*142 la_data_in[34]
*143 la_data_in[35]
*144 la_data_in[36]
*145 la_data_in[37]
*146 la_data_in[38]
*147 la_data_in[39]
*148 la_data_in[3]
*149 la_data_in[40]
*150 la_data_in[41]
*151 la_data_in[42]
*152 la_data_in[43]
*153 la_data_in[44]
*154 la_data_in[45]
*155 la_data_in[46]
*156 la_data_in[47]
*157 la_data_in[48]
*158 la_data_in[49]
*159 la_data_in[4]
*160 la_data_in[50]
*161 la_data_in[51]
*162 la_data_in[52]
*163 la_data_in[53]
*164 la_data_in[54]
*165 la_data_in[55]
*166 la_data_in[56]
*167 la_data_in[57]
*168 la_data_in[58]
*169 la_data_in[59]
*170 la_data_in[5]
*171 la_data_in[60]
*172 la_data_in[61]
*173 la_data_in[62]
*174 la_data_in[63]
*175 la_data_in[6]
*176 la_data_in[7]
*177 la_data_in[8]
*178 la_data_in[9]
*179 la_data_out[0]
*180 la_data_out[10]
*181 la_data_out[11]
*182 la_data_out[12]
*183 la_data_out[13]
*184 la_data_out[14]
*185 la_data_out[15]
*186 la_data_out[16]
*187 la_data_out[17]
*188 la_data_out[18]
*189 la_data_out[19]
*190 la_data_out[1]
*191 la_data_out[20]
*192 la_data_out[21]
*193 la_data_out[22]
*194 la_data_out[23]
*195 la_data_out[24]
*196 la_data_out[25]
*197 la_data_out[26]
*198 la_data_out[27]
*199 la_data_out[28]
*200 la_data_out[29]
*201 la_data_out[2]
*202 la_data_out[30]
*203 la_data_out[31]
*204 la_data_out[32]
*205 la_data_out[33]
*206 la_data_out[34]
*207 la_data_out[35]
*208 la_data_out[36]
*209 la_data_out[37]
*210 la_data_out[38]
*211 la_data_out[39]
*212 la_data_out[3]
*213 la_data_out[40]
*214 la_data_out[41]
*215 la_data_out[42]
*216 la_data_out[43]
*217 la_data_out[44]
*218 la_data_out[45]
*219 la_data_out[46]
*220 la_data_out[47]
*221 la_data_out[48]
*222 la_data_out[49]
*223 la_data_out[4]
*224 la_data_out[50]
*225 la_data_out[51]
*226 la_data_out[52]
*227 la_data_out[53]
*228 la_data_out[54]
*229 la_data_out[55]
*230 la_data_out[56]
*231 la_data_out[57]
*232 la_data_out[58]
*233 la_data_out[59]
*234 la_data_out[5]
*235 la_data_out[60]
*236 la_data_out[61]
*237 la_data_out[62]
*238 la_data_out[63]
*239 la_data_out[6]
*240 la_data_out[7]
*241 la_data_out[8]
*242 la_data_out[9]
*243 la_oenb[0]
*244 la_oenb[10]
*245 la_oenb[11]
*246 la_oenb[12]
*247 la_oenb[13]
*248 la_oenb[14]
*249 la_oenb[15]
*250 la_oenb[16]
*251 la_oenb[17]
*252 la_oenb[18]
*253 la_oenb[19]
*254 la_oenb[1]
*255 la_oenb[20]
*256 la_oenb[21]
*257 la_oenb[22]
*258 la_oenb[23]
*259 la_oenb[24]
*260 la_oenb[25]
*261 la_oenb[26]
*262 la_oenb[27]
*263 la_oenb[28]
*264 la_oenb[29]
*265 la_oenb[2]
*266 la_oenb[30]
*267 la_oenb[31]
*268 la_oenb[32]
*269 la_oenb[33]
*270 la_oenb[34]
*271 la_oenb[35]
*272 la_oenb[36]
*273 la_oenb[37]
*274 la_oenb[38]
*275 la_oenb[39]
*276 la_oenb[3]
*277 la_oenb[40]
*278 la_oenb[41]
*279 la_oenb[42]
*280 la_oenb[43]
*281 la_oenb[44]
*282 la_oenb[45]
*283 la_oenb[46]
*284 la_oenb[47]
*285 la_oenb[48]
*286 la_oenb[49]
*287 la_oenb[4]
*288 la_oenb[50]
*289 la_oenb[51]
*290 la_oenb[52]
*291 la_oenb[53]
*292 la_oenb[54]
*293 la_oenb[55]
*294 la_oenb[56]
*295 la_oenb[57]
*296 la_oenb[58]
*297 la_oenb[59]
*298 la_oenb[5]
*299 la_oenb[60]
*300 la_oenb[61]
*301 la_oenb[62]
*302 la_oenb[63]
*303 la_oenb[6]
*304 la_oenb[7]
*305 la_oenb[8]
*306 la_oenb[9]
*307 user_clock2
*308 user_irq[0]
*309 user_irq[1]
*310 user_irq[2]
*313 wb_clk_i
*314 wb_rst_i
*315 wbs_ack_o
*316 wbs_adr_i[0]
*317 wbs_adr_i[10]
*318 wbs_adr_i[11]
*319 wbs_adr_i[12]
*320 wbs_adr_i[13]
*321 wbs_adr_i[14]
*322 wbs_adr_i[15]
*323 wbs_adr_i[16]
*324 wbs_adr_i[17]
*325 wbs_adr_i[18]
*326 wbs_adr_i[19]
*327 wbs_adr_i[1]
*328 wbs_adr_i[20]
*329 wbs_adr_i[21]
*330 wbs_adr_i[22]
*331 wbs_adr_i[23]
*332 wbs_adr_i[24]
*333 wbs_adr_i[25]
*334 wbs_adr_i[26]
*335 wbs_adr_i[27]
*336 wbs_adr_i[28]
*337 wbs_adr_i[29]
*338 wbs_adr_i[2]
*339 wbs_adr_i[30]
*340 wbs_adr_i[31]
*341 wbs_adr_i[3]
*342 wbs_adr_i[4]
*343 wbs_adr_i[5]
*344 wbs_adr_i[6]
*345 wbs_adr_i[7]
*346 wbs_adr_i[8]
*347 wbs_adr_i[9]
*348 wbs_cyc_i
*349 wbs_dat_i[0]
*350 wbs_dat_i[10]
*351 wbs_dat_i[11]
*352 wbs_dat_i[12]
*353 wbs_dat_i[13]
*354 wbs_dat_i[14]
*355 wbs_dat_i[15]
*356 wbs_dat_i[16]
*357 wbs_dat_i[17]
*358 wbs_dat_i[18]
*359 wbs_dat_i[19]
*360 wbs_dat_i[1]
*361 wbs_dat_i[20]
*362 wbs_dat_i[21]
*363 wbs_dat_i[22]
*364 wbs_dat_i[23]
*365 wbs_dat_i[24]
*366 wbs_dat_i[25]
*367 wbs_dat_i[26]
*368 wbs_dat_i[27]
*369 wbs_dat_i[28]
*370 wbs_dat_i[29]
*371 wbs_dat_i[2]
*372 wbs_dat_i[30]
*373 wbs_dat_i[31]
*374 wbs_dat_i[3]
*375 wbs_dat_i[4]
*376 wbs_dat_i[5]
*377 wbs_dat_i[6]
*378 wbs_dat_i[7]
*379 wbs_dat_i[8]
*380 wbs_dat_i[9]
*381 wbs_dat_o[0]
*382 wbs_dat_o[10]
*383 wbs_dat_o[11]
*384 wbs_dat_o[12]
*385 wbs_dat_o[13]
*386 wbs_dat_o[14]
*387 wbs_dat_o[15]
*388 wbs_dat_o[16]
*389 wbs_dat_o[17]
*390 wbs_dat_o[18]
*391 wbs_dat_o[19]
*392 wbs_dat_o[1]
*393 wbs_dat_o[20]
*394 wbs_dat_o[21]
*395 wbs_dat_o[22]
*396 wbs_dat_o[23]
*397 wbs_dat_o[24]
*398 wbs_dat_o[25]
*399 wbs_dat_o[26]
*400 wbs_dat_o[27]
*401 wbs_dat_o[28]
*402 wbs_dat_o[29]
*403 wbs_dat_o[2]
*404 wbs_dat_o[30]
*405 wbs_dat_o[31]
*406 wbs_dat_o[3]
*407 wbs_dat_o[4]
*408 wbs_dat_o[5]
*409 wbs_dat_o[6]
*410 wbs_dat_o[7]
*411 wbs_dat_o[8]
*412 wbs_dat_o[9]
*413 wbs_sel_i[0]
*414 wbs_sel_i[1]
*415 wbs_sel_i[2]
*416 wbs_sel_i[3]
*417 wbs_stb_i
*418 wbs_we_i
*419 wrapped_as2650

*PORTS
io_in[0] I
io_in[10] I
io_in[11] I
io_in[12] I
io_in[13] I
io_in[14] I
io_in[15] I
io_in[16] I
io_in[17] I
io_in[18] I
io_in[19] I
io_in[1] I
io_in[20] I
io_in[21] I
io_in[22] I
io_in[23] I
io_in[24] I
io_in[25] I
io_in[26] I
io_in[27] I
io_in[28] I
io_in[29] I
io_in[2] I
io_in[30] I
io_in[31] I
io_in[32] I
io_in[33] I
io_in[34] I
io_in[35] I
io_in[36] I
io_in[37] I
io_in[3] I
io_in[4] I
io_in[5] I
io_in[6] I
io_in[7] I
io_in[8] I
io_in[9] I
io_oeb[0] O
io_oeb[10] O
io_oeb[11] O
io_oeb[12] O
io_oeb[13] O
io_oeb[14] O
io_oeb[15] O
io_oeb[16] O
io_oeb[17] O
io_oeb[18] O
io_oeb[19] O
io_oeb[1] O
io_oeb[20] O
io_oeb[21] O
io_oeb[22] O
io_oeb[23] O
io_oeb[24] O
io_oeb[25] O
io_oeb[26] O
io_oeb[27] O
io_oeb[28] O
io_oeb[29] O
io_oeb[2] O
io_oeb[30] O
io_oeb[31] O
io_oeb[32] O
io_oeb[33] O
io_oeb[34] O
io_oeb[35] O
io_oeb[36] O
io_oeb[37] O
io_oeb[3] O
io_oeb[4] O
io_oeb[5] O
io_oeb[6] O
io_oeb[7] O
io_oeb[8] O
io_oeb[9] O
io_out[0] O
io_out[10] O
io_out[11] O
io_out[12] O
io_out[13] O
io_out[14] O
io_out[15] O
io_out[16] O
io_out[17] O
io_out[18] O
io_out[19] O
io_out[1] O
io_out[20] O
io_out[21] O
io_out[22] O
io_out[23] O
io_out[24] O
io_out[25] O
io_out[26] O
io_out[27] O
io_out[28] O
io_out[29] O
io_out[2] O
io_out[30] O
io_out[31] O
io_out[32] O
io_out[33] O
io_out[34] O
io_out[35] O
io_out[36] O
io_out[37] O
io_out[3] O
io_out[4] O
io_out[5] O
io_out[6] O
io_out[7] O
io_out[8] O
io_out[9] O
la_data_in[0] I
la_data_in[10] I
la_data_in[11] I
la_data_in[12] I
la_data_in[13] I
la_data_in[14] I
la_data_in[15] I
la_data_in[16] I
la_data_in[17] I
la_data_in[18] I
la_data_in[19] I
la_data_in[1] I
la_data_in[20] I
la_data_in[21] I
la_data_in[22] I
la_data_in[23] I
la_data_in[24] I
la_data_in[25] I
la_data_in[26] I
la_data_in[27] I
la_data_in[28] I
la_data_in[29] I
la_data_in[2] I
la_data_in[30] I
la_data_in[31] I
la_data_in[32] I
la_data_in[33] I
la_data_in[34] I
la_data_in[35] I
la_data_in[36] I
la_data_in[37] I
la_data_in[38] I
la_data_in[39] I
la_data_in[3] I
la_data_in[40] I
la_data_in[41] I
la_data_in[42] I
la_data_in[43] I
la_data_in[44] I
la_data_in[45] I
la_data_in[46] I
la_data_in[47] I
la_data_in[48] I
la_data_in[49] I
la_data_in[4] I
la_data_in[50] I
la_data_in[51] I
la_data_in[52] I
la_data_in[53] I
la_data_in[54] I
la_data_in[55] I
la_data_in[56] I
la_data_in[57] I
la_data_in[58] I
la_data_in[59] I
la_data_in[5] I
la_data_in[60] I
la_data_in[61] I
la_data_in[62] I
la_data_in[63] I
la_data_in[6] I
la_data_in[7] I
la_data_in[8] I
la_data_in[9] I
la_data_out[0] O
la_data_out[10] O
la_data_out[11] O
la_data_out[12] O
la_data_out[13] O
la_data_out[14] O
la_data_out[15] O
la_data_out[16] O
la_data_out[17] O
la_data_out[18] O
la_data_out[19] O
la_data_out[1] O
la_data_out[20] O
la_data_out[21] O
la_data_out[22] O
la_data_out[23] O
la_data_out[24] O
la_data_out[25] O
la_data_out[26] O
la_data_out[27] O
la_data_out[28] O
la_data_out[29] O
la_data_out[2] O
la_data_out[30] O
la_data_out[31] O
la_data_out[32] O
la_data_out[33] O
la_data_out[34] O
la_data_out[35] O
la_data_out[36] O
la_data_out[37] O
la_data_out[38] O
la_data_out[39] O
la_data_out[3] O
la_data_out[40] O
la_data_out[41] O
la_data_out[42] O
la_data_out[43] O
la_data_out[44] O
la_data_out[45] O
la_data_out[46] O
la_data_out[47] O
la_data_out[48] O
la_data_out[49] O
la_data_out[4] O
la_data_out[50] O
la_data_out[51] O
la_data_out[52] O
la_data_out[53] O
la_data_out[54] O
la_data_out[55] O
la_data_out[56] O
la_data_out[57] O
la_data_out[58] O
la_data_out[59] O
la_data_out[5] O
la_data_out[60] O
la_data_out[61] O
la_data_out[62] O
la_data_out[63] O
la_data_out[6] O
la_data_out[7] O
la_data_out[8] O
la_data_out[9] O
la_oenb[0] I
la_oenb[10] I
la_oenb[11] I
la_oenb[12] I
la_oenb[13] I
la_oenb[14] I
la_oenb[15] I
la_oenb[16] I
la_oenb[17] I
la_oenb[18] I
la_oenb[19] I
la_oenb[1] I
la_oenb[20] I
la_oenb[21] I
la_oenb[22] I
la_oenb[23] I
la_oenb[24] I
la_oenb[25] I
la_oenb[26] I
la_oenb[27] I
la_oenb[28] I
la_oenb[29] I
la_oenb[2] I
la_oenb[30] I
la_oenb[31] I
la_oenb[32] I
la_oenb[33] I
la_oenb[34] I
la_oenb[35] I
la_oenb[36] I
la_oenb[37] I
la_oenb[38] I
la_oenb[39] I
la_oenb[3] I
la_oenb[40] I
la_oenb[41] I
la_oenb[42] I
la_oenb[43] I
la_oenb[44] I
la_oenb[45] I
la_oenb[46] I
la_oenb[47] I
la_oenb[48] I
la_oenb[49] I
la_oenb[4] I
la_oenb[50] I
la_oenb[51] I
la_oenb[52] I
la_oenb[53] I
la_oenb[54] I
la_oenb[55] I
la_oenb[56] I
la_oenb[57] I
la_oenb[58] I
la_oenb[59] I
la_oenb[5] I
la_oenb[60] I
la_oenb[61] I
la_oenb[62] I
la_oenb[63] I
la_oenb[6] I
la_oenb[7] I
la_oenb[8] I
la_oenb[9] I
user_clock2 I
user_irq[0] O
user_irq[1] O
user_irq[2] O
wb_clk_i I
wb_rst_i I
wbs_ack_o O
wbs_adr_i[0] I
wbs_adr_i[10] I
wbs_adr_i[11] I
wbs_adr_i[12] I
wbs_adr_i[13] I
wbs_adr_i[14] I
wbs_adr_i[15] I
wbs_adr_i[16] I
wbs_adr_i[17] I
wbs_adr_i[18] I
wbs_adr_i[19] I
wbs_adr_i[1] I
wbs_adr_i[20] I
wbs_adr_i[21] I
wbs_adr_i[22] I
wbs_adr_i[23] I
wbs_adr_i[24] I
wbs_adr_i[25] I
wbs_adr_i[26] I
wbs_adr_i[27] I
wbs_adr_i[28] I
wbs_adr_i[29] I
wbs_adr_i[2] I
wbs_adr_i[30] I
wbs_adr_i[31] I
wbs_adr_i[3] I
wbs_adr_i[4] I
wbs_adr_i[5] I
wbs_adr_i[6] I
wbs_adr_i[7] I
wbs_adr_i[8] I
wbs_adr_i[9] I
wbs_cyc_i I
wbs_dat_i[0] I
wbs_dat_i[10] I
wbs_dat_i[11] I
wbs_dat_i[12] I
wbs_dat_i[13] I
wbs_dat_i[14] I
wbs_dat_i[15] I
wbs_dat_i[16] I
wbs_dat_i[17] I
wbs_dat_i[18] I
wbs_dat_i[19] I
wbs_dat_i[1] I
wbs_dat_i[20] I
wbs_dat_i[21] I
wbs_dat_i[22] I
wbs_dat_i[23] I
wbs_dat_i[24] I
wbs_dat_i[25] I
wbs_dat_i[26] I
wbs_dat_i[27] I
wbs_dat_i[28] I
wbs_dat_i[29] I
wbs_dat_i[2] I
wbs_dat_i[30] I
wbs_dat_i[31] I
wbs_dat_i[3] I
wbs_dat_i[4] I
wbs_dat_i[5] I
wbs_dat_i[6] I
wbs_dat_i[7] I
wbs_dat_i[8] I
wbs_dat_i[9] I
wbs_dat_o[0] O
wbs_dat_o[10] O
wbs_dat_o[11] O
wbs_dat_o[12] O
wbs_dat_o[13] O
wbs_dat_o[14] O
wbs_dat_o[15] O
wbs_dat_o[16] O
wbs_dat_o[17] O
wbs_dat_o[18] O
wbs_dat_o[19] O
wbs_dat_o[1] O
wbs_dat_o[20] O
wbs_dat_o[21] O
wbs_dat_o[22] O
wbs_dat_o[23] O
wbs_dat_o[24] O
wbs_dat_o[25] O
wbs_dat_o[26] O
wbs_dat_o[27] O
wbs_dat_o[28] O
wbs_dat_o[29] O
wbs_dat_o[2] O
wbs_dat_o[30] O
wbs_dat_o[31] O
wbs_dat_o[3] O
wbs_dat_o[4] O
wbs_dat_o[5] O
wbs_dat_o[6] O
wbs_dat_o[7] O
wbs_dat_o[8] O
wbs_dat_o[9] O
wbs_sel_i[0] I
wbs_sel_i[1] I
wbs_sel_i[2] I
wbs_sel_i[3] I
wbs_stb_i I
wbs_we_i I

*D_NET *1 0.313627
*CONN
*P io_in[0] I
*I *419:io_in[0] I *D wrapped_as2650
*CAP
1 io_in[0] 0.00466579
2 *419:io_in[0] 0.000303108
3 *1:12 0.0589441
4 *1:11 0.058641
5 *1:9 0.0932037
6 *1:7 0.0978695
7 *419:io_in[0] *29:19 0
*RES
1 io_in[0] *1:7 37.305 
2 *1:7 *1:9 731.88 
3 *1:9 *1:11 4.5 
4 *1:11 *1:12 452.43 
5 *1:12 *419:io_in[0] 11.295 
*END

*D_NET *2 0.485924
*CONN
*P io_in[10] I
*I *419:io_in[10] I *D wrapped_as2650
*CAP
1 io_in[10] 0.000406292
2 *419:io_in[10] 0.000899025
3 *2:11 0.0433378
4 *2:10 0.0424388
5 *2:8 0.00453337
6 *2:7 0.00493966
7 *419:io_in[10] *40:9 0.000453306
8 *2:8 *3:8 0.0644565
9 *2:8 *23:8 0.00164244
10 *2:8 *38:8 0.0373127
11 *2:8 *50:13 0.00158769
12 *2:8 *70:15 0.0058426
13 *2:8 *109:13 0.000472264
14 *2:11 *6:11 0.261813
15 *2:11 *25:15 0.0129643
16 *2:11 *60:10 0.00108894
17 *2:11 *71:8 0.00136653
18 *2:11 *101:8 0.000369201
19 *2:11 *110:10 0
*RES
1 io_in[10] *2:7 7.785 
2 *2:7 *2:8 177.57 
3 *2:8 *2:10 4.5 
4 *2:10 *2:11 687.51 
5 *2:11 *419:io_in[10] 11.385 
*END

*D_NET *3 0.377743
*CONN
*P io_in[11] I
*I *419:io_in[11] I *D wrapped_as2650
*CAP
1 io_in[11] 0.000427849
2 *419:io_in[11] 0.00343363
3 *3:11 0.0755016
4 *3:10 0.0720679
5 *3:8 0.00455539
6 *3:7 0.00498324
7 *419:io_in[11] *78:7 6.09262e-05
8 *3:8 *4:8 0.00450665
9 *3:8 *7:11 0.0767847
10 *3:8 *50:13 0.00268647
11 *3:11 *419:io_in[29] 0.000697998
12 *3:11 *21:19 0.0514678
13 *3:11 *39:10 0
14 *3:11 *70:12 0
15 *3:11 *111:10 0.016112
16 *2:8 *3:8 0.0644565
*RES
1 io_in[11] *3:7 7.965 
2 *3:7 *3:8 227.79 
3 *3:8 *3:10 4.5 
4 *3:10 *3:11 681.21 
5 *3:11 *419:io_in[11] 26.415 
*END

*D_NET *4 0.417336
*CONN
*P io_in[12] I
*I *419:io_in[12] I *D wrapped_as2650
*CAP
1 io_in[12] 0.000488137
2 *419:io_in[12] 0.00167858
3 *4:11 0.0775394
4 *4:10 0.0758609
5 *4:8 0.000525421
6 *4:7 0.00101356
7 *4:8 *6:8 0.118707
8 *4:8 *7:11 0.101833
9 *4:8 *50:13 0.00686518
10 *4:11 *23:11 0
11 *4:11 *36:19 0.0256388
12 *4:11 *88:10 0.0026798
13 *4:11 *110:10 0
14 *3:8 *4:8 0.00450665
*RES
1 io_in[12] *4:7 8.325 
2 *4:7 *4:8 302.31 
3 *4:8 *4:10 4.5 
4 *4:10 *4:11 672.75 
5 *4:11 *419:io_in[12] 15.075 
*END

*D_NET *5 0.42681
*CONN
*P io_in[13] I
*I *419:io_in[13] I *D wrapped_as2650
*CAP
1 io_in[13] 0.000548409
2 *419:io_in[13] 0.0052801
3 *5:11 0.101442
4 *5:10 0.0961622
5 *5:8 0.0223341
6 *5:7 0.0228825
7 *5:8 *6:8 0.134297
8 *5:11 io_oeb[7] 0
9 *5:11 *51:10 0.000269308
10 *5:11 *59:12 0.0435941
11 *5:11 *74:10 0
*RES
1 io_in[13] *5:7 8.685 
2 *5:7 *5:8 341.73 
3 *5:8 *5:10 4.5 
4 *5:10 *5:11 664.29 
5 *5:11 *419:io_in[13] 38.835 
*END

*D_NET *6 0.652949
*CONN
*P io_in[14] I
*I *419:io_in[14] I *D wrapped_as2650
*CAP
1 io_in[14] 0.000634044
2 *419:io_in[14] 0.00116656
3 *6:11 0.0440536
4 *6:10 0.0428871
5 *6:8 0.00598278
6 *6:7 0.00661683
7 *419:io_in[14] *44:13 0
8 *6:8 *7:11 0.0225998
9 *6:8 *50:13 0.000428615
10 *6:8 *77:13 0.00889294
11 *6:11 *419:io_in[22] 8.09033e-05
12 *6:11 *419:io_in[30] 0.00452443
13 *6:11 *56:10 0.000264844
14 *6:11 *110:10 0
15 *2:11 *6:11 0.261813
16 *4:8 *6:8 0.118707
17 *5:8 *6:8 0.134297
*RES
1 io_in[14] *6:7 8.505 
2 *6:7 *6:8 432.27 
3 *6:8 *6:10 4.5 
4 *6:10 *6:11 656.55 
5 *6:11 *419:io_in[14] 11.565 
*END

*D_NET *7 0.430438
*CONN
*P io_in[15] I
*I *419:io_in[15] I *D wrapped_as2650
*CAP
1 io_in[15] 0.00281871
2 *419:io_in[15] 0.000258542
3 *7:17 0.00806754
4 *7:16 0.007809
5 *7:14 0.0837197
6 *7:13 0.0837197
7 *7:11 0.0196831
8 *7:10 0.0225018
9 *419:io_in[15] *29:19 0.000213264
10 *7:17 *82:7 0.000429227
11 *3:8 *7:11 0.0767847
12 *4:8 *7:11 0.101833
13 *6:8 *7:11 0.0225998
*RES
1 io_in[15] *7:10 31.635 
2 *7:10 *7:11 431.55 
3 *7:11 *7:13 4.5 
4 *7:13 *7:14 651.33 
5 *7:14 *7:16 4.5 
6 *7:16 *7:17 52.83 
7 *7:17 *419:io_in[15] 2.025 
*END

*D_NET *8 0.408614
*CONN
*P io_in[16] I
*I *419:io_in[16] I *D wrapped_as2650
*CAP
1 io_in[16] 0.000523307
2 *419:io_in[16] 0.000189597
3 *8:11 0.0649193
4 *8:10 0.0647297
5 *8:8 0.0344225
6 *8:7 0.0349459
7 *8:8 *45:10 0.208883
*RES
1 io_in[16] *8:7 8.505 
2 *8:7 *8:8 522.81 
3 *8:8 *8:10 4.5 
4 *8:10 *8:11 489.15 
5 *8:11 *419:io_in[16] 1.485 
*END

*D_NET *9 0.236289
*CONN
*P io_in[17] I
*I *419:io_in[17] I *D wrapped_as2650
*CAP
1 io_in[17] 0.00171521
2 *419:io_in[17] 0.000120653
3 *9:17 0.00992602
4 *9:16 0.00980536
5 *9:14 0.0520878
6 *9:13 0.0520878
7 *9:11 0.0542431
8 *9:10 0.0559583
9 *9:10 *83:16 0.000344984
*RES
1 io_in[17] *9:10 22.995 
2 *9:10 *9:11 417.69 
3 *9:11 *9:13 4.5 
4 *9:13 *9:14 403.65 
5 *9:14 *9:16 4.5 
6 *9:16 *9:17 66.33 
7 *9:17 *419:io_in[17] 0.945 
*END

*D_NET *10 0.207048
*CONN
*P io_in[18] I
*I *419:io_in[18] I *D wrapped_as2650
*CAP
1 io_in[18] 0.00146293
2 *419:io_in[18] 5.17084e-05
3 *10:17 0.00846955
4 *10:16 0.00841784
5 *10:14 0.037591
6 *10:13 0.037591
7 *10:11 0.0559515
8 *10:10 0.0574144
9 *10:10 *85:16 9.85843e-05
10 *10:17 *90:13 0
*RES
1 io_in[18] *10:10 19.755 
2 *10:10 *10:11 430.65 
3 *10:11 *10:13 4.5 
4 *10:13 *10:14 290.25 
5 *10:14 *10:16 4.5 
6 *10:16 *10:17 55.53 
7 *10:17 *419:io_in[18] 0.405 
*END

*D_NET *11 0.214644
*CONN
*P io_in[19] I
*I *419:io_in[19] I *D wrapped_as2650
*CAP
1 io_in[19] 0.00112278
2 *419:io_in[19] 0.00420021
3 *11:11 0.0655841
4 *11:10 0.0613839
5 *11:8 0.0130785
6 *11:7 0.0142013
7 *419:io_in[19] *39:10 0
8 *419:io_in[19] *65:8 0.000916599
9 *419:io_in[19] *86:5 0.00036844
10 *419:io_in[19] *89:12 0.000539039
11 *11:8 io_out[20] 0.000603815
12 *11:8 *15:8 0.00322039
13 *11:8 *85:16 0.0021351
14 *11:8 *87:16 0.0472899
15 *11:11 *14:17 0
*RES
1 io_in[19] *11:7 12.825 
2 *11:7 *11:8 167.31 
3 *11:8 *11:10 4.5 
4 *11:10 *11:11 467.01 
5 *11:11 *419:io_in[19] 42.165 
*END

*D_NET *12 0.494808
*CONN
*P io_in[1] I
*I *419:io_in[1] I *D wrapped_as2650
*CAP
1 io_in[1] 0.000509679
2 *419:io_in[1] 0.000210524
3 *12:11 0.0790994
4 *12:10 0.0788889
5 *12:8 0.00619514
6 *12:7 0.00670482
7 *419:io_in[1] *50:9 0
8 *12:8 *39:13 0
9 *12:8 *50:13 0.0616915
10 *12:8 *77:13 0.153395
11 *12:11 *419:io_in[37] 0.000531785
12 *12:11 *25:9 0
13 *12:11 *32:11 0.00322472
14 *12:11 *33:19 0.00140765
15 *12:11 *34:15 0.100211
16 *12:11 *69:14 0
17 *12:11 *103:8 0
18 *12:11 *104:8 0.00273724
19 *12:11 *106:10 0
*RES
1 io_in[1] *12:7 8.505 
2 *12:7 *12:8 390.15 
3 *12:8 *12:10 4.5 
4 *12:10 *12:11 754.83 
5 *12:11 *419:io_in[1] 5.805 
*END

*D_NET *13 0.15133
*CONN
*P io_in[20] I
*I *419:io_in[20] I *D wrapped_as2650
*CAP
1 io_in[20] 0.039591
2 *419:io_in[20] 0.000258542
3 *13:11 0.0259995
4 *13:10 0.0257409
5 *13:8 0.00832749
6 *13:7 0.00832749
7 *13:5 0.039591
8 *419:io_in[20] *29:19 0.000213264
9 *13:8 *14:14 0.00328093
*RES
1 io_in[20] *13:5 305.325 
2 *13:5 *13:7 4.5 
3 *13:7 *13:8 67.59 
4 *13:8 *13:10 4.5 
5 *13:10 *13:11 187.83 
6 *13:11 *419:io_in[20] 2.025 
*END

*D_NET *14 0.148001
*CONN
*P io_in[21] I
*I *419:io_in[21] I *D wrapped_as2650
*CAP
1 io_in[21] 0.00135201
2 *419:io_in[21] 0.000189597
3 *14:17 0.0259435
4 *14:16 0.0257539
5 *14:14 0.00642405
6 *14:11 0.0449373
7 *14:10 0.0398653
8 *14:10 *90:16 0.000254726
9 *14:11 *45:7 0
10 *11:11 *14:17 0
11 *13:8 *14:14 0.00328093
*RES
1 io_in[21] *14:10 19.935 
2 *14:10 *14:11 296.37 
3 *14:11 *14:14 49.23 
4 *14:14 *14:16 4.5 
5 *14:16 *14:17 188.01 
6 *14:17 *419:io_in[21] 1.485 
*END

*D_NET *15 0.19219
*CONN
*P io_in[22] I
*I *419:io_in[22] I *D wrapped_as2650
*CAP
1 io_in[22] 0.00105188
2 *419:io_in[22] 0.00148211
3 *15:11 0.0644741
4 *15:10 0.062992
5 *15:8 0.0160967
6 *15:7 0.0171485
7 *419:io_in[22] *53:9 0
8 *419:io_in[22] *110:10 0.000968721
9 *15:8 *90:16 0.0246744
10 *15:11 *90:9 0
11 *6:11 *419:io_in[22] 8.09033e-05
12 *11:8 *15:8 0.00322039
*RES
1 io_in[22] *15:7 12.645 
2 *15:7 *15:8 159.75 
3 *15:8 *15:10 4.5 
4 *15:10 *15:11 476.91 
5 *15:11 *419:io_in[22] 19.575 
*END

*D_NET *16 0.203014
*CONN
*P io_in[23] I
*I *419:io_in[23] I *D wrapped_as2650
*CAP
1 io_in[23] 0.000345489
2 *419:io_in[23] 5.17084e-05
3 *16:19 0.00882683
4 *16:18 0.00877512
5 *16:16 0.0358378
6 *16:15 0.0358378
7 *16:13 0.0564968
8 *16:11 0.0568423
9 *16:19 *89:13 0
*RES
1 io_in[23] *16:11 3.195 
2 *16:11 *16:13 434.97 
3 *16:13 *16:15 4.5 
4 *16:15 *16:16 278.19 
5 *16:16 *16:18 4.5 
6 *16:18 *16:19 58.23 
7 *16:19 *419:io_in[23] 0.405 
*END

*D_NET *17 0.244684
*CONN
*P io_in[24] I
*I *419:io_in[24] I *D wrapped_as2650
*CAP
1 io_in[24] 0.000201168
2 *419:io_in[24] 0.00237298
3 *17:16 0.0635522
4 *17:15 0.0611792
5 *17:13 0.0581959
6 *17:11 0.0583971
7 *419:io_in[24] *63:10 0.000322752
8 *419:io_in[24] *92:7 0.000244097
9 *419:io_in[24] *112:16 0
10 *17:16 *54:11 0.000218693
11 *17:16 *92:7 0
*RES
1 io_in[24] *17:11 1.935 
2 *17:11 *17:13 368.01 
3 *17:13 *17:15 4.5 
4 *17:15 *17:16 465.93 
5 *17:16 *419:io_in[24] 25.425 
*END

*D_NET *18 0.229632
*CONN
*P io_in[25] I
*I *419:io_in[25] I *D wrapped_as2650
*CAP
1 io_in[25] 0.00491936
2 *419:io_in[25] 0.000258542
3 *18:22 0.0321426
4 *18:21 0.031884
5 *18:19 0.0549663
6 *18:18 0.0549663
7 *18:16 0.0226812
8 *18:15 0.0276006
9 *419:io_in[25] *29:19 0.000213264
*RES
1 io_in[25] *18:15 36.405 
2 *18:15 *18:16 174.33 
3 *18:16 *18:18 4.5 
4 *18:18 *18:19 347.13 
5 *18:19 *18:21 4.5 
6 *18:21 *18:22 236.43 
7 *18:22 *419:io_in[25] 2.025 
*END

*D_NET *19 0.197693
*CONN
*P io_in[26] I
*I *419:io_in[26] I *D wrapped_as2650
*CAP
1 io_in[26] 0.00177706
2 *419:io_in[26] 0.00110025
3 *19:12 0.0438531
4 *19:11 0.0427529
5 *19:9 0.0482179
6 *19:7 0.049995
7 *419:io_in[26] *57:9 0.00122882
8 *19:12 *57:9 0.00876817
*RES
1 io_in[26] *19:7 13.185 
2 *19:7 *19:9 375.48 
3 *19:9 *19:11 4.5 
4 *19:11 *19:12 335.07 
5 *19:12 *419:io_in[26] 9.585 
*END

*D_NET *20 0.188101
*CONN
*P io_in[27] I
*I *419:io_in[27] I *D wrapped_as2650
*CAP
1 io_in[27] 0.00035683
2 *419:io_in[27] 0.00387148
3 *20:21 0.00404003
4 *20:16 0.0330981
5 *20:15 0.0329296
6 *20:13 0.0476008
7 *20:11 0.0479576
8 *20:16 *55:13 0
9 *20:16 *92:7 0
10 *20:21 *37:11 0.009127
11 *20:21 *40:10 0.0091193
*RES
1 io_in[27] *20:11 3.015 
2 *20:11 *20:13 370.71 
3 *20:13 *20:15 4.5 
4 *20:15 *20:16 249.75 
5 *20:16 *20:21 32.13 
6 *20:21 *419:io_in[27] 24.255 
*END

*D_NET *21 0.202429
*CONN
*P io_in[28] I
*I *419:io_in[28] I *D wrapped_as2650
*CAP
1 io_in[28] 0.000249598
2 *419:io_in[28] 0.00342589
3 *21:19 0.0221316
4 *21:18 0.0187057
5 *21:16 0.0241614
6 *21:15 0.0241614
7 *21:13 0.0233189
8 *21:11 0.0235685
9 *419:io_in[28] *22:16 0
10 *419:io_in[28] *60:11 0
11 *21:19 *66:10 0
12 *21:19 *70:12 0
13 *21:19 *90:12 0.010241
14 *21:19 *111:10 0.000996802
15 *3:11 *21:19 0.0514678
*RES
1 io_in[28] *21:11 2.475 
2 *21:11 *21:13 181.71 
3 *21:13 *21:15 4.5 
4 *21:15 *21:16 184.95 
5 *21:16 *21:18 4.5 
6 *21:18 *21:19 220.23 
7 *21:19 *419:io_in[28] 25.515 
*END

*D_NET *22 0.146647
*CONN
*P io_in[29] I
*I *419:io_in[29] I *D wrapped_as2650
*CAP
1 io_in[29] 0.000177869
2 *419:io_in[29] 0.00352818
3 *22:16 0.0194076
4 *22:15 0.0158794
5 *22:13 0.0515968
6 *22:11 0.0517747
7 *419:io_in[29] *97:7 0.000399964
8 *419:io_in[29] *111:10 0.00318493
9 *22:16 *96:12 0
10 *419:io_in[28] *22:16 0
11 *3:11 *419:io_in[29] 0.000697998
*RES
1 io_in[29] *22:11 1.935 
2 *22:11 *22:13 400.41 
3 *22:13 *22:15 4.5 
4 *22:15 *22:16 118.35 
5 *22:16 *419:io_in[29] 38.205 
*END

*D_NET *23 0.573118
*CONN
*P io_in[2] I
*I *419:io_in[2] I *D wrapped_as2650
*CAP
1 io_in[2] 0.000445006
2 *419:io_in[2] 0.0017241
3 *23:11 0.0568212
4 *23:10 0.0550971
5 *23:8 0.007784
6 *23:7 0.008229
7 *23:8 *39:13 0.00304607
8 *23:8 *50:13 0.132127
9 *23:8 *70:15 0.0400412
10 *23:11 *67:10 0.000935799
11 *23:11 *99:10 0.265225
12 *2:8 *23:8 0.00164244
13 *4:11 *23:11 0
*RES
1 io_in[2] *23:7 7.965 
2 *23:7 *23:8 336.15 
3 *23:8 *23:10 4.5 
4 *23:10 *23:11 748.71 
5 *23:11 *419:io_in[2] 16.515 
*END

*D_NET *24 0.131839
*CONN
*P io_in[30] I
*I *419:io_in[30] I *D wrapped_as2650
*CAP
1 io_in[30] 0.000113196
2 *419:io_in[30] 0.00179913
3 *24:16 0.0106989
4 *24:15 0.0088998
5 *24:13 0.0523032
6 *24:11 0.0524163
7 *419:io_in[30] *62:9 0.00042598
8 *419:io_in[30] *110:10 0.000332124
9 *24:16 *59:11 0.000326133
10 *24:16 *97:7 0
11 *6:11 *419:io_in[30] 0.00452443
*RES
1 io_in[30] *24:11 1.395 
2 *24:11 *24:13 405.81 
3 *24:13 *24:15 4.5 
4 *24:15 *24:16 63.27 
5 *24:16 *419:io_in[30] 27.855 
*END

*D_NET *25 0.19094
*CONN
*P io_in[31] I
*I *419:io_in[31] I *D wrapped_as2650
*CAP
1 io_in[31] 0.00179421
2 *419:io_in[31] 0.00106146
3 *25:15 0.00864006
4 *25:14 0.00787594
5 *25:9 0.0241324
6 *25:7 0.0256292
7 *419:io_in[31] *63:9 0
8 *25:9 *103:8 0.0275312
9 *25:14 *110:9 0.00124344
10 *25:15 *60:10 0.00364625
11 *25:15 *101:8 0.0764214
12 *2:11 *25:15 0.0129643
13 *12:11 *25:9 0
*RES
1 io_in[31] *25:7 13.185 
2 *25:7 *25:9 219.06 
3 *25:9 *25:14 12.33 
4 *25:14 *25:15 193.05 
5 *25:15 *419:io_in[31] 10.665 
*END

*D_NET *26 0.251119
*CONN
*P io_in[32] I
*I *419:io_in[32] I *D wrapped_as2650
*CAP
1 io_in[32] 0.000323383
2 *419:io_in[32] 0.00160246
3 *26:19 0.00699219
4 *26:18 0.00538974
5 *26:16 0.00998504
6 *26:15 0.00998504
7 *26:13 0.0233875
8 *26:11 0.0237109
9 *419:io_in[32] *101:7 0
10 *26:19 *36:19 0.0749873
11 *26:19 *64:10 0.00374428
12 *26:19 *88:10 0.0910108
*RES
1 io_in[32] *26:11 3.015 
2 *26:11 *26:13 181.71 
3 *26:13 *26:15 4.5 
4 *26:15 *26:16 76.23 
5 *26:16 *26:18 4.5 
6 *26:18 *26:19 249.93 
7 *26:19 *419:io_in[32] 14.355 
*END

*D_NET *27 0.232452
*CONN
*P io_in[33] I
*I *419:io_in[33] I *D wrapped_as2650
*CAP
1 io_in[33] 0.000242542
2 *419:io_in[33] 0.00237033
3 *27:19 0.0247464
4 *27:18 0.0223761
5 *27:16 0.0195049
6 *27:15 0.0195049
7 *27:13 0.0225877
8 *27:11 0.0228302
9 *27:19 *72:10 0.000417591
10 *27:19 *102:10 0.0978709
*RES
1 io_in[33] *27:11 2.475 
2 *27:11 *27:13 176.31 
3 *27:13 *27:15 4.5 
4 *27:15 *27:16 149.31 
5 *27:16 *27:18 4.5 
6 *27:18 *27:19 263.43 
7 *27:19 *419:io_in[33] 19.395 
*END

*D_NET *28 0.258221
*CONN
*P io_in[34] I
*I *419:io_in[34] I *D wrapped_as2650
*CAP
1 io_in[34] 0.00117627
2 *419:io_in[34] 0.000916057
3 *28:11 0.0411854
4 *28:10 0.0402693
5 *28:8 0.0268702
6 *28:7 0.0280464
7 *419:io_in[34] *66:9 0
8 *28:11 *48:8 0.000308121
9 *28:11 *49:8 0.0166107
10 *28:11 *52:8 0.0101283
11 *28:11 *71:8 0.0839935
12 *28:11 *101:8 0.00871728
*RES
1 io_in[34] *28:7 13.365 
2 *28:7 *28:8 206.37 
3 *28:8 *28:10 4.5 
4 *28:10 *28:11 438.75 
5 *28:11 *419:io_in[34] 10.125 
*END

*D_NET *29 0.268178
*CONN
*P io_in[35] I
*I *419:io_in[35] I *D wrapped_as2650
*CAP
1 io_in[35] 0.00267668
2 *419:io_in[35] 5.19243e-05
3 *29:19 0.0426486
4 *29:18 0.0425967
5 *29:16 0.035113
6 *29:15 0.0377897
7 *419:io_in[35] *67:9 2.73044e-05
8 *29:19 *32:11 0.0957777
9 *29:19 *87:7 0.000232221
10 *29:19 *93:5 0.000232221
11 *29:19 *98:7 0.000232221
12 *29:19 *104:8 0.00969512
13 *29:19 *109:9 0.000232221
14 *29:19 *114:5 0.000232221
15 *419:io_in[0] *29:19 0
16 *419:io_in[15] *29:19 0.000213264
17 *419:io_in[20] *29:19 0.000213264
18 *419:io_in[25] *29:19 0.000213264
*RES
1 io_in[35] *29:15 25.605 
2 *29:15 *29:16 270.27 
3 *29:16 *29:18 4.5 
4 *29:18 *29:19 435.51 
5 *29:19 *419:io_in[35] 4.905 
*END

*D_NET *30 0.221219
*CONN
*P io_in[36] I
*I *419:io_in[36] I *D wrapped_as2650
*CAP
1 io_in[36] 0.00177706
2 *419:io_in[36] 0.00154195
3 *30:12 0.0452672
4 *30:11 0.0437253
5 *30:9 0.0599221
6 *30:7 0.0616991
7 *419:io_in[36] *32:11 0.000263605
8 *419:io_in[36] *68:10 0.00702239
9 *30:12 *34:12 0
*RES
1 io_in[36] *30:7 13.185 
2 *30:7 *30:9 469.98 
3 *30:9 *30:11 4.5 
4 *30:11 *30:12 337.59 
5 *30:12 *419:io_in[36] 29.565 
*END

*D_NET *31 0.241568
*CONN
*P io_in[37] I
*I *419:io_in[37] I *D wrapped_as2650
*CAP
1 io_in[37] 0.000323383
2 *419:io_in[37] 0.000319453
3 *31:16 0.0532444
4 *31:15 0.052925
5 *31:13 0.0619784
6 *31:11 0.0623018
7 *419:io_in[37] *32:11 0.00609525
8 *419:io_in[37] *33:19 0.00335591
9 *419:io_in[37] *34:15 0.000492941
10 *12:11 *419:io_in[37] 0.000531785
*RES
1 io_in[37] *31:11 3.015 
2 *31:11 *31:13 485.55 
3 *31:13 *31:15 4.5 
4 *31:15 *31:16 408.33 
5 *31:16 *419:io_in[37] 25.155 
*END

*D_NET *32 0.403378
*CONN
*P io_in[3] I
*I *419:io_in[3] I *D wrapped_as2650
*CAP
1 io_in[3] 0.0555264
2 *419:io_in[3] 0.000102649
3 *32:11 0.00585483
4 *32:10 0.00575218
5 *32:8 0.0340733
6 *32:7 0.0340733
7 *32:5 0.0555264
8 *32:11 *33:19 0.00322085
9 *32:11 *68:10 0.00911985