*SPEF "ieee 1481-1999"
*DESIGN "boot_rom"
*DATE "11:11:11 Fri 11 11, 1111"
*VENDOR "OpenRCX"
*PROGRAM "Parallel Extraction"
*VERSION "1.0"
*DESIGN_FLOW "NAME_SCOPE LOCAL" "PIN_CAP NONE"
*DIVIDER /
*DELIMITER :
*BUS_DELIMITER []
*T_UNIT 1 NS
*C_UNIT 1 PF
*R_UNIT 1 OHM
*L_UNIT 1 HENRY

*NAME_MAP
*1 bus_out[0]
*2 bus_out[1]
*3 bus_out[2]
*4 bus_out[3]
*5 bus_out[4]
*6 bus_out[5]
*7 bus_out[6]
*8 bus_out[7]
*9 cs_port[0]
*10 cs_port[1]
*11 cs_port[2]
*12 last_addr[0]
*13 last_addr[1]
*14 last_addr[2]
*15 last_addr[3]
*16 last_addr[4]
*17 last_addr[5]
*18 last_addr[6]
*19 last_addr[7]
*20 ram_end[0]
*21 ram_end[10]
*22 ram_end[11]
*23 ram_end[12]
*24 ram_end[13]
*25 ram_end[14]
*26 ram_end[15]
*27 ram_end[1]
*28 ram_end[2]
*29 ram_end[3]
*30 ram_end[4]
*31 ram_end[5]
*32 ram_end[6]
*33 ram_end[7]
*34 ram_end[8]
*35 ram_end[9]
*36 ram_start[0]
*37 ram_start[10]
*38 ram_start[11]
*39 ram_start[12]
*40 ram_start[13]
*41 ram_start[14]
*42 ram_start[15]
*43 ram_start[1]
*44 ram_start[2]
*45 ram_start[3]
*46 ram_start[4]
*47 ram_start[5]
*48 ram_start[6]
*49 ram_start[7]
*50 ram_start[8]
*51 ram_start[9]
*54 wb_clk_i
*55 _000_
*56 _001_
*57 _002_
*58 _003_
*59 _004_
*60 _005_
*61 _006_
*62 _007_
*63 _008_
*64 _009_
*65 _010_
*66 _011_
*67 _012_
*68 _013_
*69 _014_
*70 _015_
*71 _016_
*72 _017_
*73 _018_
*74 _019_
*75 _020_
*76 _021_
*77 _022_
*78 _023_
*79 _024_
*80 _025_
*81 _026_
*82 _027_
*83 _028_
*84 _029_
*85 _030_
*86 _031_
*87 _032_
*88 _033_
*89 _034_
*90 _035_
*91 _036_
*92 _037_
*93 _038_
*94 _039_
*95 _040_
*96 _041_
*97 _042_
*98 _043_
*99 _044_
*100 _045_
*101 _046_
*102 _047_
*103 _048_
*104 _049_
*105 _050_
*106 _051_
*107 _052_
*108 _053_
*109 _054_
*110 _055_
*111 _056_
*112 _057_
*113 _058_
*114 _059_
*115 _060_
*116 _061_
*117 _062_
*118 _063_
*119 _064_
*120 _065_
*121 _066_
*122 _067_
*123 _068_
*124 _069_
*125 _070_
*126 _071_
*127 _072_
*128 _073_
*129 _074_
*130 _075_
*131 _076_
*132 _077_
*133 _078_
*134 _079_
*135 _080_
*136 _081_
*137 _082_
*138 _083_
*139 _084_
*140 _085_
*141 _086_
*142 _087_
*143 _088_
*144 _089_
*145 _090_
*146 _091_
*147 _092_
*148 _093_
*149 _094_
*150 _095_
*151 _096_
*152 _097_
*153 _098_
*154 _099_
*155 _100_
*156 _101_
*157 _102_
*158 _103_
*159 _104_
*160 _105_
*161 _106_
*162 _107_
*163 _108_
*164 _109_
*165 _110_
*166 _111_
*167 _112_
*168 _113_
*169 _114_
*170 _115_
*171 _116_
*172 _117_
*173 _118_
*174 _119_
*175 _120_
*176 _121_
*177 _122_
*178 _123_
*179 _124_
*180 _125_
*181 _126_
*182 _127_
*183 _128_
*184 _129_
*185 _130_
*186 _131_
*187 _132_
*188 _133_
*189 _134_
*190 _135_
*191 _136_
*192 _137_
*193 _138_
*194 _139_
*195 _140_
*196 _141_
*197 _142_
*198 _143_
*199 _144_
*200 _145_
*201 _146_
*202 _147_
*203 _148_
*204 _149_
*205 _150_
*206 _151_
*207 _152_
*208 _153_
*209 _154_
*210 _155_
*211 _156_
*212 _157_
*213 _158_
*214 _159_
*215 _160_
*216 _161_
*217 _162_
*218 _163_
*219 _164_
*220 _165_
*221 _166_
*222 _167_
*223 _168_
*224 _169_
*225 _170_
*226 _171_
*227 _172_
*228 _173_
*229 _174_
*230 _175_
*231 _176_
*232 _177_
*233 _178_
*234 _179_
*235 _180_
*236 _181_
*237 _182_
*238 _183_
*239 _184_
*240 _185_
*241 _186_
*242 _187_
*243 _188_
*244 _189_
*245 _190_
*246 _191_
*247 _192_
*248 _193_
*249 _194_
*250 _195_
*251 _196_
*252 _197_
*253 _198_
*254 _199_
*255 _200_
*256 _201_
*257 _202_
*258 _203_
*259 _204_
*260 _205_
*261 _206_
*262 _207_
*263 _208_
*264 _209_
*265 _210_
*266 _211_
*267 _212_
*268 _213_
*269 _214_
*270 _215_
*271 _216_
*272 _217_
*273 _218_
*274 _219_
*275 _220_
*276 _221_
*277 _222_
*278 _223_
*279 _224_
*280 _225_
*281 _226_
*282 _227_
*283 _228_
*284 _229_
*285 _230_
*286 _231_
*287 _232_
*288 _233_
*289 _234_
*290 _235_
*291 _236_
*292 _237_
*293 _238_
*294 _239_
*295 _240_
*296 _241_
*297 _242_
*298 _243_
*299 _244_
*300 _245_
*301 _246_
*302 _247_
*303 _248_
*304 _249_
*305 _250_
*306 _251_
*307 _252_
*308 _253_
*309 _254_
*310 _255_
*311 _256_
*312 _257_
*313 _258_
*314 _259_
*315 _260_
*316 _261_
*317 _262_
*318 _263_
*319 _264_
*320 _265_
*321 _266_
*322 _267_
*323 _268_
*324 _269_
*325 _270_
*326 _271_
*327 _272_
*328 _273_
*329 _274_
*330 _275_
*331 _276_
*332 _277_
*333 _278_
*334 _279_
*335 _280_
*336 _281_
*337 _282_
*338 _283_
*339 _284_
*340 _285_
*341 _286_
*342 _287_
*343 _288_
*344 _289_
*345 _290_
*346 _291_
*347 _292_
*348 _293_
*349 _294_
*350 _295_
*351 _296_
*352 _297_
*353 _298_
*354 _299_
*355 _300_
*356 _301_
*357 _302_
*358 _303_
*359 _304_
*360 _305_
*361 _306_
*362 _307_
*363 _308_
*364 _309_
*365 _310_
*366 _311_
*367 _312_
*368 _313_
*369 _314_
*370 _315_
*371 _316_
*372 _317_
*373 _318_
*374 _319_
*375 _320_
*376 _321_
*377 _322_
*378 _323_
*379 _324_
*380 _325_
*381 _326_
*382 _327_
*383 _328_
*384 _329_
*385 _330_
*386 _331_
*387 _332_
*388 _333_
*389 _334_
*390 _335_
*391 _336_
*392 _337_
*393 _338_
*394 _339_
*395 _340_
*396 _341_
*397 _342_
*398 _343_
*399 _344_
*400 _345_
*401 _346_
*402 _347_
*403 _348_
*404 _349_
*405 _350_
*406 _351_
*407 _352_
*408 _353_
*409 _354_
*410 _355_
*411 _356_
*412 _357_
*413 _358_
*414 _359_
*415 _360_
*416 _361_
*417 _362_
*418 _363_
*419 _364_
*420 _365_
*421 _366_
*422 _367_
*423 _368_
*424 _369_
*425 _370_
*426 _371_
*427 _372_
*428 _373_
*429 _374_
*430 _375_
*431 _376_
*432 _377_
*433 _378_
*434 _379_
*435 _380_
*436 _381_
*437 _382_
*438 _383_
*439 _384_
*440 _385_
*441 net1
*442 net10
*443 net11
*444 net12
*445 net13
*446 net14
*447 net15
*448 net16
*449 net17
*450 net18
*451 net19
*452 net2
*453 net20
*454 net21
*455 net22
*456 net23
*457 net24
*458 net25
*459 net26
*460 net27
*461 net28
*462 net29
*463 net3
*464 net30
*465 net31
*466 net32
*467 net33
*468 net34
*469 net35
*470 net36
*471 net37
*472 net38
*473 net39
*474 net4
*475 net40
*476 net41
*477 net42
*478 net43
*479 net44
*480 net45
*481 net46
*482 net47
*483 net48
*484 net49
*485 net5
*486 net50
*487 net51
*488 net6
*489 net7
*490 net8
*491 net9
*492 ANTENNA__404__A1
*493 ANTENNA__404__A2
*494 ANTENNA__419__I
*495 ANTENNA__420__A1
*496 ANTENNA__428__A1
*497 ANTENNA__433__I
*498 ANTENNA__439__I
*499 ANTENNA__441__I
*500 ANTENNA__451__I
*501 ANTENNA__463__I
*502 ANTENNA__469__I
*503 ANTENNA__478__I
*504 ANTENNA__488__I
*505 ANTENNA__491__A1
*506 ANTENNA__491__A2
*507 ANTENNA__491__B2
*508 ANTENNA__495__A2
*509 ANTENNA__501__I
*510 ANTENNA__504__I
*511 ANTENNA__510__A2
*512 ANTENNA__510__C2
*513 ANTENNA__512__A1
*514 ANTENNA__515__I
*515 ANTENNA__517__I
*516 ANTENNA__521__I
*517 ANTENNA__524__I
*518 ANTENNA__535__I
*519 ANTENNA__537__A1
*520 ANTENNA__537__B1
*521 ANTENNA__541__A2
*522 ANTENNA__541__A3
*523 ANTENNA__543__A3
*524 ANTENNA__545__A1
*525 ANTENNA__548__A2
*526 ANTENNA__548__B1
*527 ANTENNA__548__C2
*528 ANTENNA__552__I
*529 ANTENNA__557__B2
*530 ANTENNA__557__C2
*531 ANTENNA__559__A2
*532 ANTENNA__560__A2
*533 ANTENNA__562__A2
*534 ANTENNA__572__B1
*535 ANTENNA__580__C2
*536 ANTENNA__583__A1
*537 ANTENNA__584__I
*538 ANTENNA__585__A2
*539 ANTENNA__585__B
*540 ANTENNA__587__A2
*541 ANTENNA__594__A1
*542 ANTENNA__594__A2
*543 ANTENNA__595__A1
*544 ANTENNA__598__I
*545 ANTENNA__599__A2
*546 ANTENNA__600__A2
*547 ANTENNA__603__A2
*548 ANTENNA__604__A2
*549 ANTENNA__604__B
*550 ANTENNA__605__A1
*551 ANTENNA__614__I
*552 ANTENNA__615__A1
*553 ANTENNA__616__C1
*554 ANTENNA__616__C2
*555 ANTENNA__628__A2
*556 ANTENNA__629__A1
*557 ANTENNA__629__B2
*558 ANTENNA__633__A1
*559 ANTENNA__634__A1
*560 ANTENNA__635__A1
*561 ANTENNA__635__B1
*562 ANTENNA__641__A1
*563 ANTENNA__642__A1
*564 ANTENNA__645__I
*565 ANTENNA__647__A1
*566 ANTENNA__653__B1
*567 ANTENNA__656__I
*568 ANTENNA__659__I
*569 ANTENNA__660__C
*570 ANTENNA__662__B
*571 ANTENNA__663__A1
*572 ANTENNA__665__A1
*573 ANTENNA__665__B
*574 ANTENNA__671__I
*575 ANTENNA__672__B1
*576 ANTENNA__673__A2
*577 ANTENNA__675__B1
*578 ANTENNA__675__B2
*579 ANTENNA__679__B2
*580 ANTENNA__682__A2
*581 ANTENNA__686__A3
*582 ANTENNA__689__A4
*583 ANTENNA__692__A3
*584 ANTENNA__694__A2
*585 ANTENNA__696__I
*586 ANTENNA__698__B
*587 ANTENNA__705__A4
*588 ANTENNA__708__B2
*589 ANTENNA__709__A2
*590 ANTENNA__709__B1
*591 ANTENNA__713__A2
*592 ANTENNA__716__A1
*593 ANTENNA__716__A2
*594 ANTENNA__717__A1
*595 ANTENNA__720__A1
*596 ANTENNA__732__A3
*597 ANTENNA__734__A1
*598 ANTENNA__737__A1
*599 ANTENNA__747__A2
*600 ANTENNA__750__C1
*601 ANTENNA__751__A1
*602 ANTENNA__751__A4
*603 ANTENNA__753__A1
*604 ANTENNA__756__A2
*605 ANTENNA__761__A1
*606 ANTENNA__769__A2
*607 ANTENNA__770__A2
*608 ANTENNA_input10_I
*609 ANTENNA_input11_I
*610 ANTENNA_input12_I
*611 ANTENNA_input13_I
*612 ANTENNA_input14_I
*613 ANTENNA_input15_I
*614 ANTENNA_input16_I
*615 ANTENNA_input17_I
*616 ANTENNA_input18_I
*617 ANTENNA_input19_I
*618 ANTENNA_input1_I
*619 ANTENNA_input20_I
*620 ANTENNA_input21_I
*621 ANTENNA_input22_I
*622 ANTENNA_input23_I
*623 ANTENNA_input24_I
*624 ANTENNA_input25_I
*625 ANTENNA_input26_I
*626 ANTENNA_input27_I
*627 ANTENNA_input28_I
*628 ANTENNA_input29_I
*629 ANTENNA_input2_I
*630 ANTENNA_input30_I
*631 ANTENNA_input31_I
*632 ANTENNA_input32_I
*633 ANTENNA_input33_I
*634 ANTENNA_input34_I
*635 ANTENNA_input35_I
*636 ANTENNA_input36_I
*637 ANTENNA_input37_I
*638 ANTENNA_input38_I
*639 ANTENNA_input39_I
*640 ANTENNA_input3_I
*641 ANTENNA_input40_I
*642 ANTENNA_input41_I
*643 ANTENNA_input42_I
*644 ANTENNA_input43_I
*645 ANTENNA_input4_I
*646 ANTENNA_input5_I
*647 ANTENNA_input6_I
*648 ANTENNA_input7_I
*649 ANTENNA_input8_I
*650 ANTENNA_input9_I
*651 ANTENNA_output44_I
*652 ANTENNA_output50_I
*653 ANTENNA_output51_I
*654 FILLER_0_0_104
*655 FILLER_0_0_12
*656 FILLER_0_0_138
*657 FILLER_0_0_172
*658 FILLER_0_0_206
*659 FILLER_0_0_240
*660 FILLER_0_0_274
*661 FILLER_0_0_28
*662 FILLER_0_0_308
*663 FILLER_0_0_32
*664 FILLER_0_0_342
*665 FILLER_0_0_346
*666 FILLER_0_0_348
*667 FILLER_0_0_36
*668 FILLER_0_0_70
*669 FILLER_0_0_8
*670 FILLER_0_10_101
*671 FILLER_0_10_107
*672 FILLER_0_10_12
*673 FILLER_0_10_171
*674 FILLER_0_10_177
*675 FILLER_0_10_241
*676 FILLER_0_10_247
*677 FILLER_0_10_28
*678 FILLER_0_10_311
*679 FILLER_0_10_317
*680 FILLER_0_10_32
*681 FILLER_0_10_34
*682 FILLER_0_10_37
*683 FILLER_0_10_8
*684 FILLER_0_11_12
*685 FILLER_0_11_136
*686 FILLER_0_11_142
*687 FILLER_0_11_206
*688 FILLER_0_11_212
*689 FILLER_0_11_276
*690 FILLER_0_11_282
*691 FILLER_0_11_346
*692 FILLER_0_11_348
*693 FILLER_0_11_44
*694 FILLER_0_11_60
*695 FILLER_0_11_68
*696 FILLER_0_11_72
*697 FILLER_0_11_8
*698 FILLER_0_12_101
*699 FILLER_0_12_107
*700 FILLER_0_12_12
*701 FILLER_0_12_171
*702 FILLER_0_12_177
*703 FILLER_0_12_241
*704 FILLER_0_12_247
*705 FILLER_0_12_28
*706 FILLER_0_12_311
*707 FILLER_0_12_317
*708 FILLER_0_12_32
*709 FILLER_0_12_34
*710 FILLER_0_12_37
*711 FILLER_0_12_8
*712 FILLER_0_13_103
*713 FILLER_0_13_107
*714 FILLER_0_13_115
*715 FILLER_0_13_12
*716 FILLER_0_13_125
*717 FILLER_0_13_129
*718 FILLER_0_13_131
*719 FILLER_0_13_134
*720 FILLER_0_13_138
*721 FILLER_0_13_142
*722 FILLER_0_13_146
*723 FILLER_0_13_150
*724 FILLER_0_13_154
*725 FILLER_0_13_158
*726 FILLER_0_13_16
*727 FILLER_0_13_190
*728 FILLER_0_13_206
*729 FILLER_0_13_212
*730 FILLER_0_13_276
*731 FILLER_0_13_282
*732 FILLER_0_13_346
*733 FILLER_0_13_348
*734 FILLER_0_13_48
*735 FILLER_0_13_64
*736 FILLER_0_13_68
*737 FILLER_0_13_72
*738 FILLER_0_13_76
*739 FILLER_0_13_78
*740 FILLER_0_13_8
*741 FILLER_0_13_81
*742 FILLER_0_13_87
*743 FILLER_0_13_95
*744 FILLER_0_13_99
*745 FILLER_0_14_102
*746 FILLER_0_14_12
*747 FILLER_0_14_129
*748 FILLER_0_14_131
*749 FILLER_0_14_142
*750 FILLER_0_14_16
*751 FILLER_0_14_160
*752 FILLER_0_14_164
*753 FILLER_0_14_172
*754 FILLER_0_14_177
*755 FILLER_0_14_181
*756 FILLER_0_14_187
*757 FILLER_0_14_191
*758 FILLER_0_14_223
*759 FILLER_0_14_239
*760 FILLER_0_14_243
*761 FILLER_0_14_247
*762 FILLER_0_14_25
*763 FILLER_0_14_311
*764 FILLER_0_14_317
*765 FILLER_0_14_33
*766 FILLER_0_14_37
*767 FILLER_0_14_69
*768 FILLER_0_14_72
*769 FILLER_0_14_74
*770 FILLER_0_14_77
*771 FILLER_0_14_8
*772 FILLER_0_14_81
*773 FILLER_0_14_85
*774 FILLER_0_14_89
*775 FILLER_0_14_93
*776 FILLER_0_14_95
*777 FILLER_0_14_98
*778 FILLER_0_15_101
*779 FILLER_0_15_127
*780 FILLER_0_15_137
*781 FILLER_0_15_139
*782 FILLER_0_15_14
*783 FILLER_0_15_158
*784 FILLER_0_15_162
*785 FILLER_0_15_188
*786 FILLER_0_15_192
*787 FILLER_0_15_196
*788 FILLER_0_15_204
*789 FILLER_0_15_208
*790 FILLER_0_15_212
*791 FILLER_0_15_276
*792 FILLER_0_15_282
*793 FILLER_0_15_346
*794 FILLER_0_15_348
*795 FILLER_0_15_60
*796 FILLER_0_15_80
*797 FILLER_0_15_95
*798 FILLER_0_16_10
*799 FILLER_0_16_104
*800 FILLER_0_16_115
*801 FILLER_0_16_117
*802 FILLER_0_16_136
*803 FILLER_0_16_138
*804 FILLER_0_16_227
*805 FILLER_0_16_243
*806 FILLER_0_16_247
*807 FILLER_0_16_311
*808 FILLER_0_16_317
*809 FILLER_0_16_43
*810 FILLER_0_16_51
*811 FILLER_0_16_55
*812 FILLER_0_16_8
*813 FILLER_0_17_151
*814 FILLER_0_17_212
*815 FILLER_0_17_276
*816 FILLER_0_17_282
*817 FILLER_0_17_346
*818 FILLER_0_17_348
*819 FILLER_0_17_36
*820 FILLER_0_17_44
*821 FILLER_0_17_48
*822 FILLER_0_17_50
*823 FILLER_0_17_85
*824 FILLER_0_17_87
*825 FILLER_0_18_115
*826 FILLER_0_18_117
*827 FILLER_0_18_129
*828 FILLER_0_18_140
*829 FILLER_0_18_144
*830 FILLER_0_18_148
*831 FILLER_0_18_151
*832 FILLER_0_18_173
*833 FILLER_0_18_177
*834 FILLER_0_18_179
*835 FILLER_0_18_224
*836 FILLER_0_18_240
*837 FILLER_0_18_244
*838 FILLER_0_18_247
*839 FILLER_0_18_27
*840 FILLER_0_18_31
*841 FILLER_0_18_311
*842 FILLER_0_18_317
*843 FILLER_0_18_37
*844 FILLER_0_18_45
*845 FILLER_0_18_47
*846 FILLER_0_18_80
*847 FILLER_0_18_82
*848 FILLER_0_18_85
*849 FILLER_0_19_10
*850 FILLER_0_19_122
*851 FILLER_0_19_142
*852 FILLER_0_19_146
*853 FILLER_0_19_154
*854 FILLER_0_19_158
*855 FILLER_0_19_177
*856 FILLER_0_19_196
*857 FILLER_0_19_20
*858 FILLER_0_19_205
*859 FILLER_0_19_209
*860 FILLER_0_19_212
*861 FILLER_0_19_24
*862 FILLER_0_19_26
*863 FILLER_0_19_276
*864 FILLER_0_19_282
*865 FILLER_0_19_346
*866 FILLER_0_19_348
*867 FILLER_0_19_43
*868 FILLER_0_19_51
*869 FILLER_0_19_58
*870 FILLER_0_19_66
*871 FILLER_0_19_8
*872 FILLER_0_19_80
*873 FILLER_0_1_136
*874 FILLER_0_1_142
*875 FILLER_0_1_2
*876 FILLER_0_1_206
*877 FILLER_0_1_212
*878 FILLER_0_1_276
*879 FILLER_0_1_282
*880 FILLER_0_1_346
*881 FILLER_0_1_348
*882 FILLER_0_1_66
*883 FILLER_0_1_72
*884 FILLER_0_20_100
*885 FILLER_0_20_104
*886 FILLER_0_20_123
*887 FILLER_0_20_127
*888 FILLER_0_20_129
*889 FILLER_0_20_174
*890 FILLER_0_20_186
*891 FILLER_0_20_190
*892 FILLER_0_20_194
*893 FILLER_0_20_197
*894 FILLER_0_20_206
*895 FILLER_0_20_218
*896 FILLER_0_20_234
*897 FILLER_0_20_242
*898 FILLER_0_20_244
*899 FILLER_0_20_247
*900 FILLER_0_20_311
*901 FILLER_0_20_317
*902 FILLER_0_20_34
*903 FILLER_0_20_37
*904 FILLER_0_20_41
*905 FILLER_0_20_57
*906 FILLER_0_20_65
*907 FILLER_0_20_68
*908 FILLER_0_20_8
*909 FILLER_0_20_96
*910 FILLER_0_21_100
*911 FILLER_0_21_130
*912 FILLER_0_21_14
*913 FILLER_0_21_142
*914 FILLER_0_21_160
*915 FILLER_0_21_164
*916 FILLER_0_21_166
*917 FILLER_0_21_171
*918 FILLER_0_21_186
*919 FILLER_0_21_190
*920 FILLER_0_21_194
*921 FILLER_0_21_196
*922 FILLER_0_21_212
*923 FILLER_0_21_252
*924 FILLER_0_21_268
*925 FILLER_0_21_276
*926 FILLER_0_21_282
*927 FILLER_0_21_346
*928 FILLER_0_21_348
*929 FILLER_0_21_39
*930 FILLER_0_21_43
*931 FILLER_0_21_47
*932 FILLER_0_21_49
*933 FILLER_0_21_63
*934 FILLER_0_21_72
*935 FILLER_0_21_87
*936 FILLER_0_22_10
*937 FILLER_0_22_100
*938 FILLER_0_22_103
*939 FILLER_0_22_147
*940 FILLER_0_22_151
*941 FILLER_0_22_155
*942 FILLER_0_22_164
*943 FILLER_0_22_174
*944 FILLER_0_22_188
*945 FILLER_0_22_194
*946 FILLER_0_22_198
*947 FILLER_0_22_247
*948 FILLER_0_22_28
*949 FILLER_0_22_311
*950 FILLER_0_22_317
*951 FILLER_0_22_32
*952 FILLER_0_22_37
*953 FILLER_0_22_53
*954 FILLER_0_22_77
*955 FILLER_0_22_8
*956 FILLER_0_22_87
*957 FILLER_0_22_94
*958 FILLER_0_22_98
*959 FILLER_0_23_111
*960 FILLER_0_23_115
*961 FILLER_0_23_131
*962 FILLER_0_23_135
*963 FILLER_0_23_137
*964 FILLER_0_23_194
*965 FILLER_0_23_198
*966 FILLER_0_23_2
*967 FILLER_0_23_212
*968 FILLER_0_23_214
*969 FILLER_0_23_259
*970 FILLER_0_23_275
*971 FILLER_0_23_279
*972 FILLER_0_23_282
*973 FILLER_0_23_346
*974 FILLER_0_23_348
*975 FILLER_0_23_4
*976 FILLER_0_23_67
*977 FILLER_0_23_69
*978 FILLER_0_23_88
*979 FILLER_0_24_10
*980 FILLER_0_24_102
*981 FILLER_0_24_104
*982 FILLER_0_24_123
*983 FILLER_0_24_127
*984 FILLER_0_24_167
*985 FILLER_0_24_177
*986 FILLER_0_24_179
*987 FILLER_0_24_193
*988 FILLER_0_24_197
*989 FILLER_0_24_205
*990 FILLER_0_24_209
*991 FILLER_0_24_244
*992 FILLER_0_24_247
*993 FILLER_0_24_311
*994 FILLER_0_24_317
*995 FILLER_0_24_49
*996 FILLER_0_24_53
*997 FILLER_0_24_56
*998 FILLER_0_24_8
*999 FILLER_0_24_95
*1000 FILLER_0_25_10
*1001 FILLER_0_25_14
*1002 FILLER_0_25_151
*1003 FILLER_0_25_18
*1004 FILLER_0_25_194
*1005 FILLER_0_25_196
*1006 FILLER_0_25_2
*1007 FILLER_0_25_212
*1008 FILLER_0_25_248
*1009 FILLER_0_25_282
*1010 FILLER_0_25_346
*1011 FILLER_0_25_348
*1012 FILLER_0_25_45
*1013 FILLER_0_25_51
*1014 FILLER_0_25_6
*1015 FILLER_0_25_72
*1016 FILLER_0_25_74
*1017 FILLER_0_25_90
*1018 FILLER_0_25_92
*1019 FILLER_0_26_107
*1020 FILLER_0_26_111
*1021 FILLER_0_26_12
*1022 FILLER_0_26_16
*1023 FILLER_0_26_161
*1024 FILLER_0_26_173
*1025 FILLER_0_26_20
*1026 FILLER_0_26_219
*1027 FILLER_0_26_22
*1028 FILLER_0_26_240
*1029 FILLER_0_26_244
*1030 FILLER_0_26_247
*1031 FILLER_0_26_311
*1032 FILLER_0_26_317
*1033 FILLER_0_26_50
*1034 FILLER_0_26_8
*1035 FILLER_0_27_119
*1036 FILLER_0_27_137
*1037 FILLER_0_27_139
*1038 FILLER_0_27_14
*1039 FILLER_0_27_179
*1040 FILLER_0_27_183
*1041 FILLER_0_27_187
*1042 FILLER_0_27_193
*1043 FILLER_0_27_197
*1044 FILLER_0_27_244
*1045 FILLER_0_27_276
*1046 FILLER_0_27_282
*1047 FILLER_0_27_346
*1048 FILLER_0_27_348
*1049 FILLER_0_27_62
*1050 FILLER_0_27_81
*1051 FILLER_0_28_115
*1052 FILLER_0_28_168
*1053 FILLER_0_28_177
*1054 FILLER_0_28_235
*1055 FILLER_0_28_243
*1056 FILLER_0_28_247
*1057 FILLER_0_28_311
*1058 FILLER_0_28_317
*1059 FILLER_0_28_59
*1060 FILLER_0_28_61
*1061 FILLER_0_28_8
*1062 FILLER_0_29_163
*1063 FILLER_0_29_182
*1064 FILLER_0_29_186
*1065 FILLER_0_29_2
*1066 FILLER_0_29_243
*1067 FILLER_0_29_27
*1068 FILLER_0_29_275
*1069 FILLER_0_29_279
*1070 FILLER_0_29_282
*1071 FILLER_0_29_346
*1072 FILLER_0_29_348
*1073 FILLER_0_29_4
*1074 FILLER_0_29_61
*1075 FILLER_0_29_72
*1076 FILLER_0_29_76
*1077 FILLER_0_2_101
*1078 FILLER_0_2_107
*1079 FILLER_0_2_12
*1080 FILLER_0_2_171
*1081 FILLER_0_2_177
*1082 FILLER_0_2_241
*1083 FILLER_0_2_247
*1084 FILLER_0_2_28
*1085 FILLER_0_2_311
*1086 FILLER_0_2_317
*1087 FILLER_0_2_32
*1088 FILLER_0_2_34
*1089 FILLER_0_2_37
*1090 FILLER_0_2_8
*1091 FILLER_0_30_107
*1092 FILLER_0_30_117
*1093 FILLER_0_30_157
*1094 FILLER_0_30_161
*1095 FILLER_0_30_167
*1096 FILLER_0_30_171
*1097 FILLER_0_30_177
*1098 FILLER_0_30_184
*1099 FILLER_0_30_190
*1100 FILLER_0_30_196
*1101 FILLER_0_30_2
*1102 FILLER_0_30_230
*1103 FILLER_0_30_238
*1104 FILLER_0_30_242
*1105 FILLER_0_30_244
*1106 FILLER_0_30_247
*1107 FILLER_0_30_311
*1108 FILLER_0_30_317
*1109 FILLER_0_30_60
*1110 FILLER_0_31_104
*1111 FILLER_0_31_106
*1112 FILLER_0_31_123
*1113 FILLER_0_31_125
*1114 FILLER_0_31_137
*1115 FILLER_0_31_139
*1116 FILLER_0_31_142
*1117 FILLER_0_31_160
*1118 FILLER_0_31_162
*1119 FILLER_0_31_171
*1120 FILLER_0_31_175
*1121 FILLER_0_31_183
*1122 FILLER_0_31_187
*1123 FILLER_0_31_190
*1124 FILLER_0_31_205
*1125 FILLER_0_31_209
*1126 FILLER_0_31_223
*1127 FILLER_0_31_227
*1128 FILLER_0_31_259
*1129 FILLER_0_31_275
*1130 FILLER_0_31_279
*1131 FILLER_0_31_282
*1132 FILLER_0_31_346
*1133 FILLER_0_31_348
*1134 FILLER_0_31_59
*1135 FILLER_0_31_69
*1136 FILLER_0_32_12
*1137 FILLER_0_32_126
*1138 FILLER_0_32_138
*1139 FILLER_0_32_145
*1140 FILLER_0_32_149
*1141 FILLER_0_32_156
*1142 FILLER_0_32_172
*1143 FILLER_0_32_174
*1144 FILLER_0_32_189
*1145 FILLER_0_32_224
*1146 FILLER_0_32_240
*1147 FILLER_0_32_244
*1148 FILLER_0_32_247
*1149 FILLER_0_32_29
*1150 FILLER_0_32_311
*1151 FILLER_0_32_317
*1152 FILLER_0_32_58
*1153 FILLER_0_32_8
*1154 FILLER_0_33_101
*1155 FILLER_0_33_103
*1156 FILLER_0_33_129
*1157 FILLER_0_33_133
*1158 FILLER_0_33_137
*1159 FILLER_0_33_139
*1160 FILLER_0_33_142
*1161 FILLER_0_33_146
*1162 FILLER_0_33_163
*1163 FILLER_0_33_171
*1164 FILLER_0_33_188
*1165 FILLER_0_33_192
*1166 FILLER_0_33_194
*1167 FILLER_0_33_200
*1168 FILLER_0_33_208
*1169 FILLER_0_33_212
*1170 FILLER_0_33_24
*1171 FILLER_0_33_276
*1172 FILLER_0_33_282
*1173 FILLER_0_33_346
*1174 FILLER_0_33_348
*1175 FILLER_0_33_63
*1176 FILLER_0_33_82
*1177 FILLER_0_34_102
*1178 FILLER_0_34_104
*1179 FILLER_0_34_107
*1180 FILLER_0_34_158
*1181 FILLER_0_34_168
*1182 FILLER_0_34_172
*1183 FILLER_0_34_174
*1184 FILLER_0_34_177
*1185 FILLER_0_34_185
*1186 FILLER_0_34_189
*1187 FILLER_0_34_191
*1188 FILLER_0_34_197
*1189 FILLER_0_34_209
*1190 FILLER_0_34_241
*1191 FILLER_0_34_247
*1192 FILLER_0_34_26
*1193 FILLER_0_34_311
*1194 FILLER_0_34_317
*1195 FILLER_0_34_8
*1196 FILLER_0_34_81
*1197 FILLER_0_34_85
*1198 FILLER_0_34_87
*1199 FILLER_0_35_113
*1200 FILLER_0_35_117
*1201 FILLER_0_35_121
*1202 FILLER_0_35_125
*1203 FILLER_0_35_132
*1204 FILLER_0_35_139
*1205 FILLER_0_35_142
*1206 FILLER_0_35_150
*1207 FILLER_0_35_159
*1208 FILLER_0_35_167
*1209 FILLER_0_35_173
*1210 FILLER_0_35_18
*1211 FILLER_0_35_192
*1212 FILLER_0_35_206
*1213 FILLER_0_35_218
*1214 FILLER_0_35_250
*1215 FILLER_0_35_266
*1216 FILLER_0_35_274
*1217 FILLER_0_35_278
*1218 FILLER_0_35_282
*1219 FILLER_0_35_346
*1220 FILLER_0_35_348
*1221 FILLER_0_35_50
*1222 FILLER_0_35_54
*1223 FILLER_0_35_56
*1224 FILLER_0_35_65
*1225 FILLER_0_35_69
*1226 FILLER_0_35_72
*1227 FILLER_0_36_100
*1228 FILLER_0_36_104
*1229 FILLER_0_36_107
*1230 FILLER_0_36_117
*1231 FILLER_0_36_121
*1232 FILLER_0_36_146
*1233 FILLER_0_36_150
*1234 FILLER_0_36_166
*1235 FILLER_0_36_174
*1236 FILLER_0_36_185
*1237 FILLER_0_36_2
*1238 FILLER_0_36_208
*1239 FILLER_0_36_212
*1240 FILLER_0_36_244
*1241 FILLER_0_36_247
*1242 FILLER_0_36_311
*1243 FILLER_0_36_317
*1244 FILLER_0_36_37
*1245 FILLER_0_36_4
*1246 FILLER_0_36_90
*1247 FILLER_0_37_100
*1248 FILLER_0_37_104
*1249 FILLER_0_37_116
*1250 FILLER_0_37_120
*1251 FILLER_0_37_122
*1252 FILLER_0_37_129
*1253 FILLER_0_37_150
*1254 FILLER_0_37_154
*1255 FILLER_0_37_156
*1256 FILLER_0_37_159
*1257 FILLER_0_37_184
*1258 FILLER_0_37_188
*1259 FILLER_0_37_190
*1260 FILLER_0_37_2
*1261 FILLER_0_37_203
*1262 FILLER_0_37_207
*1263 FILLER_0_37_209
*1264 FILLER_0_37_212
*1265 FILLER_0_37_276
*1266 FILLER_0_37_282
*1267 FILLER_0_37_346
*1268 FILLER_0_37_348
*1269 FILLER_0_37_65
*1270 FILLER_0_37_69
*1271 FILLER_0_37_72
*1272 FILLER_0_37_74
*1273 FILLER_0_38_115
*1274 FILLER_0_38_177
*1275 FILLER_0_38_193
*1276 FILLER_0_38_199
*1277 FILLER_0_38_2
*1278 FILLER_0_38_231
*1279 FILLER_0_38_239
*1280 FILLER_0_38_243
*1281 FILLER_0_38_247
*1282 FILLER_0_38_311
*1283 FILLER_0_38_317
*1284 FILLER_0_38_43
*1285 FILLER_0_38_58
*1286 FILLER_0_38_60
*1287 FILLER_0_38_87
*1288 FILLER_0_38_97
*1289 FILLER_0_39_101
*1290 FILLER_0_39_105
*1291 FILLER_0_39_107
*1292 FILLER_0_39_116
*1293 FILLER_0_39_142
*1294 FILLER_0_39_146
*1295 FILLER_0_39_152
*1296 FILLER_0_39_156
*1297 FILLER_0_39_168
*1298 FILLER_0_39_2
*1299 FILLER_0_39_200
*1300 FILLER_0_39_208
*1301 FILLER_0_39_212
*1302 FILLER_0_39_276
*1303 FILLER_0_39_282
*1304 FILLER_0_39_346
*1305 FILLER_0_39_348
*1306 FILLER_0_39_80
*1307 FILLER_0_39_88
*1308 FILLER_0_39_90
*1309 FILLER_0_3_12
*1310 FILLER_0_3_136
*1311 FILLER_0_3_142
*1312 FILLER_0_3_206
*1313 FILLER_0_3_212
*1314 FILLER_0_3_276
*1315 FILLER_0_3_282
*1316 FILLER_0_3_346
*1317 FILLER_0_3_348
*1318 FILLER_0_3_44
*1319 FILLER_0_3_60
*1320 FILLER_0_3_68
*1321 FILLER_0_3_72
*1322 FILLER_0_3_8
*1323 FILLER_0_40_141
*1324 FILLER_0_40_173
*1325 FILLER_0_40_177
*1326 FILLER_0_40_2
*1327 FILLER_0_40_241
*1328 FILLER_0_40_247
*1329 FILLER_0_40_311
*1330 FILLER_0_40_317
*1331 FILLER_0_40_34
*1332 FILLER_0_40_51
*1333 FILLER_0_40_55
*1334 FILLER_0_40_57
*1335 FILLER_0_40_6
*1336 FILLER_0_41_135
*1337 FILLER_0_41_139
*1338 FILLER_0_41_14
*1339 FILLER_0_41_150
*1340 FILLER_0_41_18
*1341 FILLER_0_41_182
*1342 FILLER_0_41_198
*1343 FILLER_0_41_206
*1344 FILLER_0_41_212
*1345 FILLER_0_41_22
*1346 FILLER_0_41_276
*1347 FILLER_0_41_28
*1348 FILLER_0_41_282
*1349 FILLER_0_41_346
*1350 FILLER_0_41_348
*1351 FILLER_0_41_47
*1352 FILLER_0_41_51
*1353 FILLER_0_41_55
*1354 FILLER_0_41_63
*1355 FILLER_0_41_67
*1356 FILLER_0_41_69
*1357 FILLER_0_42_130
*1358 FILLER_0_42_146
*1359 FILLER_0_42_162
*1360 FILLER_0_42_170
*1361 FILLER_0_42_174
*1362 FILLER_0_42_177
*1363 FILLER_0_42_241
*1364 FILLER_0_42_247
*1365 FILLER_0_42_27
*1366 FILLER_0_42_311
*1367 FILLER_0_42_317
*1368 FILLER_0_42_47
*1369 FILLER_0_42_58
*1370 FILLER_0_42_8
*1371 FILLER_0_43_126
*1372 FILLER_0_43_134
*1373 FILLER_0_43_138
*1374 FILLER_0_43_142
*1375 FILLER_0_43_158
*1376 FILLER_0_43_160
*1377 FILLER_0_43_187
*1378 FILLER_0_43_2
*1379 FILLER_0_43_201
*1380 FILLER_0_43_209
*1381 FILLER_0_43_212
*1382 FILLER_0_43_214
*1383 FILLER_0_43_22
*1384 FILLER_0_43_24
*1385 FILLER_0_43_247
*1386 FILLER_0_43_279
*1387 FILLER_0_43_282
*1388 FILLER_0_43_298
*1389 FILLER_0_43_306
*1390 FILLER_0_43_308
*1391 FILLER_0_43_311
*1392 FILLER_0_43_319
*1393 FILLER_0_43_67
*1394 FILLER_0_43_69
*1395 FILLER_0_44_120
*1396 FILLER_0_44_124
*1397 FILLER_0_44_132
*1398 FILLER_0_44_14
*1399 FILLER_0_44_164
*1400 FILLER_0_44_168
*1401 FILLER_0_44_172
*1402 FILLER_0_44_180
*1403 FILLER_0_44_196
*1404 FILLER_0_44_232
*1405 FILLER_0_44_236
*1406 FILLER_0_44_240
*1407 FILLER_0_44_244
*1408 FILLER_0_44_274
*1409 FILLER_0_44_278
*1410 FILLER_0_44_308
*1411 FILLER_0_44_310
*1412 FILLER_0_44_337
*1413 FILLER_0_44_339
*1414 FILLER_0_44_342
*1415 FILLER_0_44_346
*1416 FILLER_0_44_348
*1417 FILLER_0_44_36
*1418 FILLER_0_44_38
*1419 FILLER_0_44_51
*1420 FILLER_0_44_55
*1421 FILLER_0_44_59
*1422 FILLER_0_44_63
*1423 FILLER_0_44_65
*1424 FILLER_0_44_70
*1425 FILLER_0_44_79
*1426 FILLER_0_4_101
*1427 FILLER_0_4_107
*1428 FILLER_0_4_12
*1429 FILLER_0_4_171
*1430 FILLER_0_4_177
*1431 FILLER_0_4_241
*1432 FILLER_0_4_247
*1433 FILLER_0_4_28
*1434 FILLER_0_4_311
*1435 FILLER_0_4_317
*1436 FILLER_0_4_32
*1437 FILLER_0_4_34
*1438 FILLER_0_4_37
*1439 FILLER_0_4_8
*1440 FILLER_0_5_12
*1441 FILLER_0_5_136
*1442 FILLER_0_5_142
*1443 FILLER_0_5_206
*1444 FILLER_0_5_212
*1445 FILLER_0_5_276
*1446 FILLER_0_5_282
*1447 FILLER_0_5_346
*1448 FILLER_0_5_348
*1449 FILLER_0_5_44
*1450 FILLER_0_5_60
*1451 FILLER_0_5_68
*1452 FILLER_0_5_72
*1453 FILLER_0_5_8
*1454 FILLER_0_6_101
*1455 FILLER_0_6_107
*1456 FILLER_0_6_12
*1457 FILLER_0_6_171
*1458 FILLER_0_6_177
*1459 FILLER_0_6_241
*1460 FILLER_0_6_247
*1461 FILLER_0_6_28
*1462 FILLER_0_6_311
*1463 FILLER_0_6_317
*1464 FILLER_0_6_32
*1465 FILLER_0_6_34
*1466 FILLER_0_6_37
*1467 FILLER_0_6_8
*1468 FILLER_0_7_12
*1469 FILLER_0_7_136
*1470 FILLER_0_7_142
*1471 FILLER_0_7_206
*1472 FILLER_0_7_212
*1473 FILLER_0_7_276
*1474 FILLER_0_7_282
*1475 FILLER_0_7_346
*1476 FILLER_0_7_348
*1477 FILLER_0_7_44
*1478 FILLER_0_7_60
*1479 FILLER_0_7_68
*1480 FILLER_0_7_72
*1481 FILLER_0_7_8
*1482 FILLER_0_8_101
*1483 FILLER_0_8_107
*1484 FILLER_0_8_12
*1485 FILLER_0_8_171
*1486 FILLER_0_8_177
*1487 FILLER_0_8_241
*1488 FILLER_0_8_247
*1489 FILLER_0_8_28
*1490 FILLER_0_8_311
*1491 FILLER_0_8_317
*1492 FILLER_0_8_32
*1493 FILLER_0_8_34
*1494 FILLER_0_8_37
*1495 FILLER_0_8_8
*1496 FILLER_0_9_136
*1497 FILLER_0_9_142
*1498 FILLER_0_9_2
*1499 FILLER_0_9_206
*1500 FILLER_0_9_212
*1501 FILLER_0_9_276
*1502 FILLER_0_9_282
*1503 FILLER_0_9_346
*1504 FILLER_0_9_348
*1505 FILLER_0_9_66
*1506 FILLER_0_9_72
*1507 PHY_EDGE_ROW_0_Left_45
*1508 PHY_EDGE_ROW_0_Right_0
*1509 PHY_EDGE_ROW_10_Left_55
*1510 PHY_EDGE_ROW_10_Right_10
*1511 PHY_EDGE_ROW_11_Left_56
*1512 PHY_EDGE_ROW_11_Right_11
*1513 PHY_EDGE_ROW_12_Left_57
*1514 PHY_EDGE_ROW_12_Right_12
*1515 PHY_EDGE_ROW_13_Left_58
*1516 PHY_EDGE_ROW_13_Right_13
*1517 PHY_EDGE_ROW_14_Left_59
*1518 PHY_EDGE_ROW_14_Right_14
*1519 PHY_EDGE_ROW_15_Left_60
*1520 PHY_EDGE_ROW_15_Right_15
*1521 PHY_EDGE_ROW_16_Left_61
*1522 PHY_EDGE_ROW_16_Right_16
*1523 PHY_EDGE_ROW_17_Left_62
*1524 PHY_EDGE_ROW_17_Right_17
*1525 PHY_EDGE_ROW_18_Left_63
*1526 PHY_EDGE_ROW_18_Right_18
*1527 PHY_EDGE_ROW_19_Left_64
*1528 PHY_EDGE_ROW_19_Right_19
*1529 PHY_EDGE_ROW_1_Left_46
*1530 PHY_EDGE_ROW_1_Right_1
*1531 PHY_EDGE_ROW_20_Left_65
*1532 PHY_EDGE_ROW_20_Right_20
*1533 PHY_EDGE_ROW_21_Left_66
*1534 PHY_EDGE_ROW_21_Right_21
*1535 PHY_EDGE_ROW_22_Left_67
*1536 PHY_EDGE_ROW_22_Right_22
*1537 PHY_EDGE_ROW_23_Left_68
*1538 PHY_EDGE_ROW_23_Right_23
*1539 PHY_EDGE_ROW_24_Left_69
*1540 PHY_EDGE_ROW_24_Right_24
*1541 PHY_EDGE_ROW_25_Left_70
*1542 PHY_EDGE_ROW_25_Right_25
*1543 PHY_EDGE_ROW_26_Left_71
*1544 PHY_EDGE_ROW_26_Right_26
*1545 PHY_EDGE_ROW_27_Left_72
*1546 PHY_EDGE_ROW_27_Right_27
*1547 PHY_EDGE_ROW_28_Left_73
*1548 PHY_EDGE_ROW_28_Right_28
*1549 PHY_EDGE_ROW_29_Left_74
*1550 PHY_EDGE_ROW_29_Right_29
*1551 PHY_EDGE_ROW_2_Left_47
*1552 PHY_EDGE_ROW_2_Right_2
*1553 PHY_EDGE_ROW_30_Left_75
*1554 PHY_EDGE_ROW_30_Right_30
*1555 PHY_EDGE_ROW_31_Left_76
*1556 PHY_EDGE_ROW_31_Right_31
*1557 PHY_EDGE_ROW_32_Left_77
*1558 PHY_EDGE_ROW_32_Right_32
*1559 PHY_EDGE_ROW_33_Left_78
*1560 PHY_EDGE_ROW_33_Right_33
*1561 PHY_EDGE_ROW_34_Left_79
*1562 PHY_EDGE_ROW_34_Right_34
*1563 PHY_EDGE_ROW_35_Left_80
*1564 PHY_EDGE_ROW_35_Right_35
*1565 PHY_EDGE_ROW_36_Left_81
*1566 PHY_EDGE_ROW_36_Right_36
*1567 PHY_EDGE_ROW_37_Left_82
*1568 PHY_EDGE_ROW_37_Right_37
*1569 PHY_EDGE_ROW_38_Left_83
*1570 PHY_EDGE_ROW_38_Right_38
*1571 PHY_EDGE_ROW_39_Left_84
*1572 PHY_EDGE_ROW_39_Right_39
*1573 PHY_EDGE_ROW_3_Left_48
*1574 PHY_EDGE_ROW_3_Right_3
*1575 PHY_EDGE_ROW_40_Left_85
*1576 PHY_EDGE_ROW_40_Right_40
*1577 PHY_EDGE_ROW_41_Left_86
*1578 PHY_EDGE_ROW_41_Right_41
*1579 PHY_EDGE_ROW_42_Left_87
*1580 PHY_EDGE_ROW_42_Right_42
*1581 PHY_EDGE_ROW_43_Left_88
*1582 PHY_EDGE_ROW_43_Right_43
*1583 PHY_EDGE_ROW_44_Left_89
*1584 PHY_EDGE_ROW_44_Right_44
*1585 PHY_EDGE_ROW_4_Left_49
*1586 PHY_EDGE_ROW_4_Right_4
*1587 PHY_EDGE_ROW_5_Left_50
*1588 PHY_EDGE_ROW_5_Right_5
*1589 PHY_EDGE_ROW_6_Left_51
*1590 PHY_EDGE_ROW_6_Right_6
*1591 PHY_EDGE_ROW_7_Left_52