*SPEF "ieee 1481-1999"
*DESIGN "gpios"
*DATE "11:11:11 Fri 11 11, 1111"
*VENDOR "OpenRCX"
*PROGRAM "Parallel Extraction"
*VERSION "1.0"
*DESIGN_FLOW "NAME_SCOPE LOCAL" "PIN_CAP NONE"
*DIVIDER /
*DELIMITER :
*BUS_DELIMITER []
*T_UNIT 1 NS
*C_UNIT 1 PF
*R_UNIT 1 OHM
*L_UNIT 1 HENRY

*NAME_MAP
*1 RXD
*2 TXD
*3 addr[0]
*4 addr[1]
*5 addr[2]
*6 addr[3]
*7 bus_cyc
*8 bus_we
*9 data_in[0]
*10 data_in[1]
*11 data_in[2]
*12 data_in[3]
*13 data_in[4]
*14 data_in[5]
*15 data_in[6]
*16 data_in[7]
*17 data_out[0]
*18 data_out[1]
*19 data_out[2]
*20 data_out[3]
*21 data_out[4]
*22 data_out[5]
*23 data_out[6]
*24 data_out[7]
*25 io_in[0]
*26 io_in[10]
*27 io_in[11]
*28 io_in[12]
*29 io_in[13]
*30 io_in[14]
*31 io_in[15]
*32 io_in[1]
*33 io_in[2]
*34 io_in[3]
*35 io_in[4]
*36 io_in[5]
*37 io_in[6]
*38 io_in[7]
*39 io_in[8]
*40 io_in[9]
*41 io_oeb[0]
*42 io_oeb[10]
*43 io_oeb[11]
*44 io_oeb[12]
*45 io_oeb[13]
*46 io_oeb[14]
*47 io_oeb[15]
*48 io_oeb[1]
*49 io_oeb[2]
*50 io_oeb[3]
*51 io_oeb[4]
*52 io_oeb[5]
*53 io_oeb[6]
*54 io_oeb[7]
*55 io_oeb[8]
*56 io_oeb[9]
*57 io_out[0]
*58 io_out[10]
*59 io_out[11]
*60 io_out[12]
*61 io_out[13]
*62 io_out[14]
*63 io_out[15]
*64 io_out[1]
*65 io_out[2]
*66 io_out[3]
*67 io_out[4]
*68 io_out[5]
*69 io_out[6]
*70 io_out[7]
*71 io_out[8]
*72 io_out[9]
*73 irq0
*74 irq6
*75 irq7
*76 la_data_out[0]
*77 la_data_out[1]
*78 la_data_out[2]
*79 la_data_out[3]
*80 la_data_out[4]
*81 la_data_out[5]
*82 la_data_out[6]
*83 la_data_out[7]
*84 pwm0
*85 pwm1
*86 pwm2
*87 rst
*88 tmr0_clk
*89 tmr0_o
*90 tmr1_clk
*91 tmr1_o
*94 wb_clk_i
*95 DDRA\[0\]
*96 DDRA\[1\]
*97 DDRA\[2\]
*98 DDRA\[3\]
*99 DDRA\[4\]
*100 DDRA\[5\]
*101 DDRA\[6\]
*102 DDRA\[7\]
*103 DDRB\[0\]
*104 DDRB\[1\]
*105 DDRB\[2\]
*106 DDRB\[3\]
*107 DDRB\[4\]
*108 DDRB\[5\]
*109 DDRB\[6\]
*110 DDRB\[7\]
*111 PORTA\[0\]
*112 PORTA\[1\]
*113 PORTA\[2\]
*114 PORTA\[3\]
*115 PORTA\[4\]
*116 PORTA\[5\]
*117 PORTA\[6\]
*118 PORTA\[7\]
*119 PORTB\[0\]
*120 PORTB\[1\]
*121 PORTB\[2\]
*122 PORTB\[3\]
*123 PORTB\[4\]
*124 PORTB\[5\]
*125 PORTB\[6\]
*126 PORTB\[7\]
*127 SPA\[0\]
*128 SPA\[1\]
*129 SPA\[2\]
*130 SPA\[3\]
*131 SPA\[4\]
*132 SPA\[5\]
*133 SPA\[6\]
*134 SPA\[7\]
*135 SPB\[0\]
*136 SPB\[1\]
*137 SPB\[2\]
*138 SPB\[3\]
*139 SPB\[4\]
*140 SPB\[5\]
*141 SPB\[6\]
*142 SPB\[7\]
*143 _000_
*144 _001_
*145 _002_
*146 _003_
*147 _004_
*148 _005_
*149 _006_
*150 _007_
*151 _008_
*152 _009_
*153 _010_
*154 _011_
*155 _012_
*156 _013_
*157 _014_
*158 _015_
*159 _016_
*160 _017_
*161 _018_
*162 _019_
*163 _020_
*164 _021_
*165 _022_
*166 _023_
*167 _024_
*168 _025_
*169 _026_
*170 _027_
*171 _028_
*172 _029_
*173 _030_
*174 _031_
*175 _032_
*176 _033_
*177 _034_
*178 _035_
*179 _036_
*180 _037_
*181 _038_
*182 _039_
*183 _040_
*184 _041_
*185 _042_
*186 _043_
*187 _044_
*188 _045_
*189 _046_
*190 _047_
*191 _048_
*192 _049_
*193 _050_
*194 _051_
*195 _052_
*196 _053_
*197 _054_
*198 _055_
*199 _056_
*200 _057_
*201 _058_
*202 _059_
*203 _060_
*204 _061_
*205 _062_
*206 _063_
*207 _064_
*208 _065_
*209 _066_
*210 _067_
*211 _068_
*212 _069_
*213 _070_
*214 _071_
*215 _072_
*216 _073_
*217 _074_
*218 _075_
*219 _076_
*220 _077_
*221 _078_
*222 _079_
*223 _080_
*224 _081_
*225 _082_
*226 _083_
*227 _084_
*228 _085_
*229 _086_
*230 _087_
*231 _088_
*232 _089_
*233 _090_
*234 _091_
*235 _092_
*236 _093_
*237 _094_
*238 _095_
*239 _096_
*240 _097_
*241 _098_
*242 _099_
*243 _100_
*244 _101_
*245 _102_
*246 _103_
*247 _104_
*248 _105_
*249 _106_
*250 _107_
*251 _108_
*252 _109_
*253 _110_
*254 _111_
*255 _112_
*256 _113_
*257 _114_
*258 _115_
*259 _116_
*260 _117_
*261 _118_
*262 _119_
*263 _120_
*264 _121_
*265 _122_
*266 _123_
*267 _124_
*268 _125_
*269 _126_
*270 _127_
*271 _128_
*272 _129_
*273 _130_
*274 _131_
*275 _132_
*276 _133_
*277 _134_
*278 _135_
*279 _136_
*280 _137_
*281 _138_
*282 _139_
*283 _140_
*284 _141_
*285 _142_
*286 _143_
*287 _144_
*288 _145_
*289 _146_
*290 _147_
*291 _148_
*292 _149_
*293 _150_
*294 _151_
*295 _152_
*296 _153_
*297 _154_
*298 _155_
*299 _156_
*300 _157_
*301 _158_
*302 _159_
*303 _160_
*304 _161_
*305 _162_
*306 _163_
*307 _164_
*308 _165_
*309 _166_
*310 _167_
*311 _168_
*312 _169_
*313 _170_
*314 _171_
*315 _172_
*316 _173_
*317 _174_
*318 _175_
*319 _176_
*320 _177_
*321 _178_
*322 _179_
*323 _180_
*324 _181_
*325 _182_
*326 _183_
*327 _184_
*328 _185_
*329 _186_
*330 _187_
*331 _188_
*332 _189_
*333 _190_
*334 _191_
*335 _192_
*336 _193_
*337 _194_
*338 _195_
*339 _196_
*340 _197_
*341 _198_
*342 _199_
*343 _200_
*344 _201_
*345 _202_
*346 _203_
*347 _204_
*348 _205_
*349 _206_
*350 _207_
*351 _208_
*352 _209_
*353 _210_
*354 _211_
*355 _212_
*356 _213_
*357 _214_
*358 _215_
*359 _216_
*360 _217_
*361 _218_
*362 _219_
*363 _220_
*364 _221_
*365 _222_
*366 _223_
*367 _224_
*368 _225_
*369 _226_
*370 _227_
*371 _228_
*372 _229_
*373 _230_
*374 _231_
*375 _232_
*376 _233_
*377 _234_
*378 _235_
*379 _236_
*380 _237_
*381 _238_
*382 _239_
*383 _240_
*384 _241_
*385 _242_
*386 _243_
*387 _244_
*388 _245_
*389 _246_
*390 _247_
*391 _248_
*392 _249_
*393 _250_
*394 _251_
*395 _252_
*396 _253_
*397 _254_
*398 _255_
*399 _256_
*400 _257_
*401 _258_
*402 _259_
*403 _260_
*404 _261_
*405 _262_
*406 _263_
*407 _264_
*408 _265_
*409 _266_
*410 _267_
*411 _268_
*412 _269_
*413 _270_
*414 _271_
*415 _272_
*416 _273_
*417 _274_
*418 _275_
*419 _276_
*420 _277_
*421 _278_
*422 _279_
*423 _280_
*424 _281_
*425 _282_
*426 _283_
*427 _284_
*428 _285_
*429 _286_
*430 _287_
*431 _288_
*432 _289_
*433 _290_
*434 _291_
*435 _292_
*436 _293_
*437 _294_
*438 _295_
*439 _296_
*440 _297_
*441 _298_
*442 _299_
*443 _300_
*444 _301_
*445 _302_
*446 _303_
*447 _304_
*448 _305_
*449 _306_
*450 _307_
*451 _308_
*452 _309_
*453 _310_
*454 _311_
*455 _312_
*456 _313_
*457 _314_
*458 _315_
*459 _316_
*460 _317_
*461 _318_
*462 _319_
*463 _320_
*464 _321_
*465 _322_
*466 _323_
*467 _324_
*468 _325_
*469 _326_
*470 _327_
*471 _328_
*472 _329_
*473 _330_
*474 _331_
*475 _332_
*476 _333_
*477 _334_
*478 _335_
*479 _336_
*480 _337_
*481 _338_
*482 _339_
*483 _340_
*484 _341_
*485 _342_
*486 _343_
*487 _344_
*488 _345_
*489 _346_
*490 _347_
*491 _348_
*492 _349_
*493 _350_
*494 _351_
*495 _352_
*496 _353_
*497 _354_
*498 _355_
*499 _356_
*500 _357_
*501 _358_
*502 _359_
*503 _360_
*504 _361_
*505 _362_
*506 _363_
*507 _364_
*508 _365_
*509 _366_
*510 _367_
*511 _368_
*512 _369_
*513 _370_
*514 _371_
*515 _372_
*516 _373_
*517 _374_
*518 _375_
*519 _376_
*520 _377_
*521 _378_
*522 _379_
*523 _380_
*524 _381_
*525 _382_
*526 _383_
*527 _384_
*528 _385_
*529 _386_
*530 _387_
*531 _388_
*532 _389_
*533 _390_
*534 _391_
*535 _392_
*536 _393_
*537 _394_
*538 _395_
*539 _396_
*540 clknet_0_wb_clk_i
*541 clknet_3_0__leaf_wb_clk_i
*542 clknet_3_1__leaf_wb_clk_i
*543 clknet_3_2__leaf_wb_clk_i
*544 clknet_3_3__leaf_wb_clk_i
*545 clknet_3_4__leaf_wb_clk_i
*546 clknet_3_5__leaf_wb_clk_i
*547 clknet_3_6__leaf_wb_clk_i
*548 clknet_3_7__leaf_wb_clk_i
*549 last_irg6_trigger
*550 last_irq0_trigger
*551 last_irq7_trigger
*552 net1
*553 net10
*554 net11
*555 net12
*556 net13
*557 net14
*558 net15
*559 net16
*560 net17
*561 net18
*562 net19
*563 net2
*564 net20
*565 net21
*566 net22
*567 net23
*568 net24
*569 net25
*570 net26
*571 net27
*572 net28
*573 net29
*574 net3
*575 net30
*576 net31
*577 net32
*578 net33
*579 net34
*580 net35
*581 net36
*582 net37
*583 net38
*584 net39
*585 net4
*586 net40
*587 net41
*588 net42
*589 net43
*590 net44
*591 net45
*592 net46
*593 net47
*594 net48
*595 net49
*596 net5
*597 net50
*598 net51
*599 net52
*600 net53
*601 net54
*602 net55
*603 net56
*604 net57
*605 net58
*606 net59
*607 net6
*608 net60
*609 net61
*610 net62
*611 net63
*612 net64
*613 net65
*614 net66
*615 net67
*616 net68
*617 net69
*618 net7
*619 net70
*620 net71
*621 net72
*622 net73
*623 net74
*624 net75
*625 net76
*626 net77
*627 net78
*628 net79
*629 net8
*630 net80
*631 net81
*632 net82
*633 net83
*634 net84
*635 net85
*636 net86
*637 net87
*638 net88
*639 net89
*640 net9
*641 net90
*642 net91
*643 net92
*644 net93
*645 net94
*646 net95
*647 net96
*648 net97
*649 net98
*650 net99
*651 ANTENNA__398__A1
*652 ANTENNA__400__I1
*653 ANTENNA__400__S
*654 ANTENNA__403__A1
*655 ANTENNA__405__I1
*656 ANTENNA__405__S
*657 ANTENNA__407__I0
*658 ANTENNA__407__I1
*659 ANTENNA__407__S
*660 ANTENNA__409__I1
*661 ANTENNA__409__S
*662 ANTENNA__411__I0
*663 ANTENNA__411__S
*664 ANTENNA__413__I
*665 ANTENNA__414__A1
*666 ANTENNA__416__A1
*667 ANTENNA__417__A1
*668 ANTENNA__418__A1
*669 ANTENNA__418__A2
*670 ANTENNA__419__A1
*671 ANTENNA__420__A1
*672 ANTENNA__421__A1
*673 ANTENNA__421__A2
*674 ANTENNA__425__I
*675 ANTENNA__426__I0
*676 ANTENNA__426__S
*677 ANTENNA__428__I
*678 ANTENNA__430__I
*679 ANTENNA__431__I
*680 ANTENNA__432__A1
*681 ANTENNA__435__A2
*682 ANTENNA__438__A1
*683 ANTENNA__438__A2
*684 ANTENNA__440__I
*685 ANTENNA__441__A1
*686 ANTENNA__441__A2
*687 ANTENNA__443__I
*688 ANTENNA__444__A1
*689 ANTENNA__446__A1
*690 ANTENNA__447__A1
*691 ANTENNA__447__A2
*692 ANTENNA__448__A1
*693 ANTENNA__448__A2
*694 ANTENNA__449__A1
*695 ANTENNA__450__A2
*696 ANTENNA__451__A2
*697 ANTENNA__452__A1
*698 ANTENNA__452__A2
*699 ANTENNA__453__A2
*700 ANTENNA__454__A1
*701 ANTENNA__454__A2
*702 ANTENNA__455__A1
*703 ANTENNA__455__A2
*704 ANTENNA__456__A1
*705 ANTENNA__456__A2
*706 ANTENNA__457__A1
*707 ANTENNA__457__A2
*708 ANTENNA__459__A1
*709 ANTENNA__461__I
*710 ANTENNA__463__I
*711 ANTENNA__464__A1
*712 ANTENNA__464__A2
*713 ANTENNA__465__A2
*714 ANTENNA__466__I
*715 ANTENNA__475__I
*716 ANTENNA__488__B2
*717 ANTENNA__488__C2
*718 ANTENNA__493__I
*719 ANTENNA__494__A1
*720 ANTENNA__500__I
*721 ANTENNA__502__I
*722 ANTENNA__505__I
*723 ANTENNA__509__A1
*724 ANTENNA__509__B2
*725 ANTENNA__512__C
*726 ANTENNA__517__A1
*727 ANTENNA__518__I
*728 ANTENNA__519__I
*729 ANTENNA__520__A2
*730 ANTENNA__520__C1
*731 ANTENNA__523__I
*732 ANTENNA__524__A1
*733 ANTENNA__524__B2
*734 ANTENNA__526__C
*735 ANTENNA__528__A1
*736 ANTENNA__529__A1
*737 ANTENNA__529__B2
*738 ANTENNA__532__A1
*739 ANTENNA__533__B2
*740 ANTENNA__540__A1
*741 ANTENNA__540__B2
*742 ANTENNA__541__A2
*743 ANTENNA__541__C1
*744 ANTENNA__542__I
*745 ANTENNA__545__A1
*746 ANTENNA__548__A1
*747 ANTENNA__549__A1
*748 ANTENNA__549__B2
*749 ANTENNA__551__B2
*750 ANTENNA__551__C1
*751 ANTENNA__556__B2
*752 ANTENNA__557__A2
*753 ANTENNA__557__B1
*754 ANTENNA__557__C1
*755 ANTENNA__558__A1
*756 ANTENNA__560__A1
*757 ANTENNA__563__A1
*758 ANTENNA__563__C2
*759 ANTENNA__564__B2
*760 ANTENNA__564__C1
*761 ANTENNA__565__A1
*762 ANTENNA__566__A1
*763 ANTENNA__566__B2
*764 ANTENNA__568__C
*765 ANTENNA__572__A1
*766 ANTENNA__572__B
*767 ANTENNA__572__C
*768 ANTENNA__573__A1
*769 ANTENNA__573__B2
*770 ANTENNA__574__B2
*771 ANTENNA__575__A1
*772 ANTENNA__576__A1
*773 ANTENNA__578__C
*774 ANTENNA__580__A1
*775 ANTENNA__580__A2
*776 ANTENNA__583__A1
*777 ANTENNA__583__A3
*778 ANTENNA__584__A2
*779 ANTENNA__585__A2
*780 ANTENNA__586__A1
*781 ANTENNA__588__I
*782 ANTENNA__589__A3
*783 ANTENNA__590__A2
*784 ANTENNA__591__A2
*785 ANTENNA__592__A1
*786 ANTENNA__596__A1
*787 ANTENNA__596__A3
*788 ANTENNA__597__A2
*789 ANTENNA__598__A1
*790 ANTENNA__599__A1
*791 ANTENNA__602__A1
*792 ANTENNA__602__A2
*793 ANTENNA__604__I
*794 ANTENNA__605__A1
*795 ANTENNA__607__A2
*796 ANTENNA__611__I
*797 ANTENNA__614__A1
*798 ANTENNA__615__C
*799 ANTENNA__616__I
*800 ANTENNA__617__A1
*801 ANTENNA__622__A1
*802 ANTENNA__623__I
*803 ANTENNA__625__C
*804 ANTENNA__626__I
*805 ANTENNA__627__A1
*806 ANTENNA__631__A1
*807 ANTENNA__632__C
*808 ANTENNA__633__I
*809 ANTENNA__634__A1
*810 ANTENNA__638__A1
*811 ANTENNA__638__A2
*812 ANTENNA__640__I
*813 ANTENNA__642__B
*814 ANTENNA__644__A2
*815 ANTENNA__646__A1
*816 ANTENNA__647__A2
*817 ANTENNA__649__A1
*818 ANTENNA__650__B
*819 ANTENNA__651__I
*820 ANTENNA__652__A1
*821 ANTENNA__654__B
*822 ANTENNA__655__A1
*823 ANTENNA__656__A1
*824 ANTENNA__657__B
*825 ANTENNA__658__I
*826 ANTENNA__659__A1
*827 ANTENNA__664__A1
*828 ANTENNA__666__A1
*829 ANTENNA__668__I
*830 ANTENNA__669__A1
*831 ANTENNA__672__A1
*832 ANTENNA__675__A1
*833 ANTENNA__681__I
*834 ANTENNA__682__A1
*835 ANTENNA__685__A1
*836 ANTENNA__688__A1
*837 ANTENNA__689__C
*838 ANTENNA__690__A1
*839 ANTENNA__691__A1
*840 ANTENNA__693__A1
*841 ANTENNA__694__A1
*842 ANTENNA__696__A1
*843 ANTENNA__698__A1
*844 ANTENNA__701__A1
*845 ANTENNA__701__A2
*846 ANTENNA__702__A1
*847 ANTENNA__704__A1
*848 ANTENNA__704__A2
*849 ANTENNA__705__A1
*850 ANTENNA__707__A1
*851 ANTENNA__707__A2
*852 ANTENNA__708__A1
*853 ANTENNA__710__A1
*854 ANTENNA__710__A2
*855 ANTENNA__712__A1
*856 ANTENNA__713__A2
*857 ANTENNA__716__I
*858 ANTENNA__719__A1
*859 ANTENNA__722__A1
*860 ANTENNA__725__A1
*861 ANTENNA__729__A1
*862 ANTENNA__731__A1
*863 ANTENNA__734__A1
*864 ANTENNA__737__A1
*865 ANTENNA__738__A1
*866 ANTENNA__740__A1
*867 ANTENNA__743__A1
*868 ANTENNA__743__A2
*869 ANTENNA__745__A1
*870 ANTENNA__746__A1
*871 ANTENNA__746__A2
*872 ANTENNA__751__A1
*873 ANTENNA__752__A1
*874 ANTENNA__754__A1
*875 ANTENNA__757__A1
*876 ANTENNA__761__A1
*877 ANTENNA__763__A1
*878 ANTENNA__766__A1
*879 ANTENNA__767__A1
*880 ANTENNA__770__A1
*881 ANTENNA__772__A1
*882 ANTENNA__775__A1
*883 ANTENNA__778__A1
*884 ANTENNA__779__A1
*885 ANTENNA__779__C
*886 ANTENNA__780__A1
*887 ANTENNA__780__A2
*888 ANTENNA__782__A1
*889 ANTENNA__783__A1
*890 ANTENNA__786__A1
*891 ANTENNA__788__A1
*892 ANTENNA__789__A1
*893 ANTENNA__791__A1
*894 ANTENNA__793__A1
*895 ANTENNA__794__A1
*896 ANTENNA__796__A1
*897 ANTENNA__797__A1
*898 ANTENNA__800__A1
*899 ANTENNA__802__A1
*900 ANTENNA__803__A1
*901 ANTENNA__804__A1
*902 ANTENNA__804__A2
*903 ANTENNA__807__A1
*904 ANTENNA__809__I
*905 ANTENNA__810__A1
*906 ANTENNA__812__A1
*907 ANTENNA__815__A1
*908 ANTENNA__816__A1
*909 ANTENNA__819__A1
*910 ANTENNA__821__A1
*911 ANTENNA__822__A1
*912 ANTENNA__824__A1
*913 ANTENNA__824__C
*914 ANTENNA__825__A1
*915 ANTENNA__826__A1
*916 ANTENNA__826__C
*917 ANTENNA__827__A1
*918 ANTENNA__827__A2
*919 ANTENNA__828__A1
*920 ANTENNA__828__A2
*921 ANTENNA__829__CLK
*922 ANTENNA__831__CLK
*923 ANTENNA__838__CLK
*924 ANTENNA__839__CLK
*925 ANTENNA__840__CLK
*926 ANTENNA__841__CLK
*927 ANTENNA__843__CLK
*928 ANTENNA__844__CLK
*929 ANTENNA__845__CLK
*930 ANTENNA__846__CLK
*931 ANTENNA__847__CLK
*932 ANTENNA__848__CLK
*933 ANTENNA__849__CLK
*934 ANTENNA__850__CLK
*935 ANTENNA__851__CLK
*936 ANTENNA__852__CLK
*937 ANTENNA__853__CLK
*938 ANTENNA__854__CLK
*939 ANTENNA__855__CLK
*940 ANTENNA__865__CLK
*941 ANTENNA__866__CLK
*942 ANTENNA__867__CLK
*943 ANTENNA__868__CLK
*944 ANTENNA__873__CLK
*945 ANTENNA__875__CLK
*946 ANTENNA__877__CLK
*947 ANTENNA__879__CLK
*948 ANTENNA__880__CLK
*949 ANTENNA__888__CLK
*950 ANTENNA__889__CLK
*951 ANTENNA__890__CLK
*952 ANTENNA__891__CLK
*953 ANTENNA__892__CLK
*954 ANTENNA__893__CLK
*955 ANTENNA__894__CLK
*956 ANTENNA__895__CLK
*957 ANTENNA__896__CLK
*958 ANTENNA__897__CLK
*959 ANTENNA__898__CLK
*960 ANTENNA_clkbuf_0_wb_clk_i_I
*961 ANTENNA_clkbuf_3_0__f_wb_clk_i_I
*962 ANTENNA_clkbuf_3_1__f_wb_clk_i_I
*963 ANTENNA_clkbuf_3_2__f_wb_clk_i_I
*964 ANTENNA_clkbuf_3_3__f_wb_clk_i_I
*965 ANTENNA_clkbuf_3_4__f_wb_clk_i_I
*966 ANTENNA_clkbuf_3_5__f_wb_clk_i_I
*967 ANTENNA_clkbuf_3_6__f_wb_clk_i_I
*968 ANTENNA_clkbuf_3_7__f_wb_clk_i_I
*969 ANTENNA_input10_I
*970 ANTENNA_input11_I
*971 ANTENNA_input12_I
*972 ANTENNA_input13_I
*973 ANTENNA_input14_I
*974 ANTENNA_input15_I
*975 ANTENNA_input16_I
*976 ANTENNA_input17_I
*977 ANTENNA_input18_I
*978 ANTENNA_input19_I
*979 ANTENNA_input1_I
*980 ANTENNA_input20_I
*981 ANTENNA_input21_I
*982 ANTENNA_input22_I
*983 ANTENNA_input23_I
*984 ANTENNA_input24_I
*985 ANTENNA_input25_I
*986 ANTENNA_input26_I
*987 ANTENNA_input27_I
*988 ANTENNA_input28_I
*989 ANTENNA_input29_I
*990 ANTENNA_input2_I
*991 ANTENNA_input30_I
*992 ANTENNA_input31_I
*993 ANTENNA_input32_I
*994 ANTENNA_input33_I
*995 ANTENNA_input34_I
*996 ANTENNA_input35_I
*997 ANTENNA_input36_I
*998 ANTENNA_input37_I
*999 ANTENNA_input3_I
*1000 ANTENNA_input4_I
*1001 ANTENNA_input5_I
*1002 ANTENNA_input6_I
*1003 ANTENNA_input7_I
*1004 ANTENNA_input8_I
*1005 ANTENNA_input9_I
*1006 ANTENNA_output48_I
*1007 ANTENNA_output50_I
*1008 ANTENNA_output79_I
*1009 ANTENNA_output80_I
*1010 ANTENNA_output81_I
*1011 FILLER_0_0_104
*1012 FILLER_0_0_108
*1013 FILLER_0_0_138
*1014 FILLER_0_0_142
*1015 FILLER_0_0_172
*1016 FILLER_0_0_176
*1017 FILLER_0_0_2
*1018 FILLER_0_0_232
*1019 FILLER_0_0_236
*1020 FILLER_0_0_266
*1021 FILLER_0_0_282
*1022 FILLER_0_0_284
*1023 FILLER_0_0_291
*1024 FILLER_0_0_299
*1025 FILLER_0_0_303
*1026 FILLER_0_0_334
*1027 FILLER_0_0_36
*1028 FILLER_0_0_368
*1029 FILLER_0_0_372
*1030 FILLER_0_0_374
*1031 FILLER_0_0_40
*1032 FILLER_0_0_6
*1033 FILLER_0_0_70
*1034 FILLER_0_0_74
*1035 FILLER_0_10_101
*1036 FILLER_0_10_157
*1037 FILLER_0_10_161
*1038 FILLER_0_10_169
*1039 FILLER_0_10_173
*1040 FILLER_0_10_177
*1041 FILLER_0_10_185
*1042 FILLER_0_10_191
*1043 FILLER_0_10_195
*1044 FILLER_0_10_2
*1045 FILLER_0_10_227
*1046 FILLER_0_10_243
*1047 FILLER_0_10_247
*1048 FILLER_0_10_311
*1049 FILLER_0_10_317
*1050 FILLER_0_10_349
*1051 FILLER_0_10_365
*1052 FILLER_0_10_37
*1053 FILLER_0_10_373
*1054 FILLER_0_10_83
*1055 FILLER_0_11_10
*1056 FILLER_0_11_105
*1057 FILLER_0_11_117
*1058 FILLER_0_11_121
*1059 FILLER_0_11_129
*1060 FILLER_0_11_133
*1061 FILLER_0_11_135
*1062 FILLER_0_11_14
*1063 FILLER_0_11_152
*1064 FILLER_0_11_156
*1065 FILLER_0_11_18
*1066 FILLER_0_11_188
*1067 FILLER_0_11_204
*1068 FILLER_0_11_208
*1069 FILLER_0_11_212
*1070 FILLER_0_11_220
*1071 FILLER_0_11_222
*1072 FILLER_0_11_26
*1073 FILLER_0_11_275
*1074 FILLER_0_11_279
*1075 FILLER_0_11_282
*1076 FILLER_0_11_29
*1077 FILLER_0_11_33
*1078 FILLER_0_11_346
*1079 FILLER_0_11_352
*1080 FILLER_0_11_368
*1081 FILLER_0_11_372
*1082 FILLER_0_11_374
*1083 FILLER_0_11_47
*1084 FILLER_0_11_54
*1085 FILLER_0_11_58
*1086 FILLER_0_11_62
*1087 FILLER_0_11_64
*1088 FILLER_0_11_85
*1089 FILLER_0_11_89
*1090 FILLER_0_12_102
*1091 FILLER_0_12_104
*1092 FILLER_0_12_107
*1093 FILLER_0_12_119
*1094 FILLER_0_12_123
*1095 FILLER_0_12_139
*1096 FILLER_0_12_148
*1097 FILLER_0_12_150
*1098 FILLER_0_12_161
*1099 FILLER_0_12_165
*1100 FILLER_0_12_185
*1101 FILLER_0_12_187
*1102 FILLER_0_12_219
*1103 FILLER_0_12_227
*1104 FILLER_0_12_229
*1105 FILLER_0_12_238
*1106 FILLER_0_12_24
*1107 FILLER_0_12_242
*1108 FILLER_0_12_244
*1109 FILLER_0_12_247
*1110 FILLER_0_12_311
*1111 FILLER_0_12_317
*1112 FILLER_0_12_32
*1113 FILLER_0_12_34
*1114 FILLER_0_12_349
*1115 FILLER_0_12_365
*1116 FILLER_0_12_37
*1117 FILLER_0_12_373
*1118 FILLER_0_12_39
*1119 FILLER_0_12_42
*1120 FILLER_0_12_46
*1121 FILLER_0_12_49
*1122 FILLER_0_12_53
*1123 FILLER_0_12_69
*1124 FILLER_0_12_77
*1125 FILLER_0_12_79
*1126 FILLER_0_12_82
*1127 FILLER_0_12_98
*1128 FILLER_0_13_10
*1129 FILLER_0_13_112
*1130 FILLER_0_13_116
*1131 FILLER_0_13_119
*1132 FILLER_0_13_123
*1133 FILLER_0_13_126
*1134 FILLER_0_13_134
*1135 FILLER_0_13_138
*1136 FILLER_0_13_142
*1137 FILLER_0_13_187
*1138 FILLER_0_13_191
*1139 FILLER_0_13_207
*1140 FILLER_0_13_209
*1141 FILLER_0_13_212
*1142 FILLER_0_13_258
*1143 FILLER_0_13_274
*1144 FILLER_0_13_278
*1145 FILLER_0_13_28
*1146 FILLER_0_13_282
*1147 FILLER_0_13_346
*1148 FILLER_0_13_352
*1149 FILLER_0_13_36
*1150 FILLER_0_13_360
*1151 FILLER_0_13_364
*1152 FILLER_0_13_366
*1153 FILLER_0_13_40
*1154 FILLER_0_13_58
*1155 FILLER_0_13_66
*1156 FILLER_0_13_72
*1157 FILLER_0_13_80
*1158 FILLER_0_13_92
*1159 FILLER_0_13_96
*1160 FILLER_0_14_100
*1161 FILLER_0_14_104
*1162 FILLER_0_14_12
*1163 FILLER_0_14_122
*1164 FILLER_0_14_145
*1165 FILLER_0_14_161
*1166 FILLER_0_14_169
*1167 FILLER_0_14_173
*1168 FILLER_0_14_185
*1169 FILLER_0_14_187
*1170 FILLER_0_14_2
*1171 FILLER_0_14_206
*1172 FILLER_0_14_210
*1173 FILLER_0_14_212
*1174 FILLER_0_14_215
*1175 FILLER_0_14_22
*1176 FILLER_0_14_242
*1177 FILLER_0_14_244
*1178 FILLER_0_14_247
*1179 FILLER_0_14_251
*1180 FILLER_0_14_255
*1181 FILLER_0_14_26
*1182 FILLER_0_14_287
*1183 FILLER_0_14_303
*1184 FILLER_0_14_311
*1185 FILLER_0_14_317
*1186 FILLER_0_14_349
*1187 FILLER_0_14_365
*1188 FILLER_0_14_373
*1189 FILLER_0_14_63
*1190 FILLER_0_14_71
*1191 FILLER_0_14_75
*1192 FILLER_0_14_87
*1193 FILLER_0_14_96
*1194 FILLER_0_15_103
*1195 FILLER_0_15_107
*1196 FILLER_0_15_11
*1197 FILLER_0_15_115
*1198 FILLER_0_15_119
*1199 FILLER_0_15_121
*1200 FILLER_0_15_124
*1201 FILLER_0_15_138
*1202 FILLER_0_15_147
*1203 FILLER_0_15_151
*1204 FILLER_0_15_155
*1205 FILLER_0_15_163
*1206 FILLER_0_15_173
*1207 FILLER_0_15_177
*1208 FILLER_0_15_183
*1209 FILLER_0_15_190
*1210 FILLER_0_15_194
*1211 FILLER_0_15_2
*1212 FILLER_0_15_212
*1213 FILLER_0_15_239
*1214 FILLER_0_15_241
*1215 FILLER_0_15_247
*1216 FILLER_0_15_282
*1217 FILLER_0_15_346
*1218 FILLER_0_15_352
*1219 FILLER_0_15_368
*1220 FILLER_0_15_372
*1221 FILLER_0_15_374
*1222 FILLER_0_15_59
*1223 FILLER_0_15_61
*1224 FILLER_0_15_68
*1225 FILLER_0_15_82
*1226 FILLER_0_16_107
*1227 FILLER_0_16_109
*1228 FILLER_0_16_141
*1229 FILLER_0_16_153
*1230 FILLER_0_16_164
*1231 FILLER_0_16_172
*1232 FILLER_0_16_174
*1233 FILLER_0_16_177
*1234 FILLER_0_16_187
*1235 FILLER_0_16_2
*1236 FILLER_0_16_21
*1237 FILLER_0_16_219
*1238 FILLER_0_16_227
*1239 FILLER_0_16_230
*1240 FILLER_0_16_238
*1241 FILLER_0_16_241
*1242 FILLER_0_16_25
*1243 FILLER_0_16_260
*1244 FILLER_0_16_268
*1245 FILLER_0_16_272
*1246 FILLER_0_16_304
*1247 FILLER_0_16_308
*1248 FILLER_0_16_312
*1249 FILLER_0_16_314
*1250 FILLER_0_16_317
*1251 FILLER_0_16_349
*1252 FILLER_0_16_365
*1253 FILLER_0_16_373
*1254 FILLER_0_16_4
*1255 FILLER_0_16_74
*1256 FILLER_0_16_82
*1257 FILLER_0_16_97
*1258 FILLER_0_17_135
*1259 FILLER_0_17_139
*1260 FILLER_0_17_142
*1261 FILLER_0_17_146
*1262 FILLER_0_17_153
*1263 FILLER_0_17_157
*1264 FILLER_0_17_165
*1265 FILLER_0_17_177
*1266 FILLER_0_17_193
*1267 FILLER_0_17_2
*1268 FILLER_0_17_209
*1269 FILLER_0_17_212
*1270 FILLER_0_17_228
*1271 FILLER_0_17_230
*1272 FILLER_0_17_239
*1273 FILLER_0_17_251
*1274 FILLER_0_17_267
*1275 FILLER_0_17_275
*1276 FILLER_0_17_279
*1277 FILLER_0_17_288
*1278 FILLER_0_17_320
*1279 FILLER_0_17_336
*1280 FILLER_0_17_344
*1281 FILLER_0_17_348
*1282 FILLER_0_17_352
*1283 FILLER_0_17_368
*1284 FILLER_0_17_372
*1285 FILLER_0_17_374
*1286 FILLER_0_17_4
*1287 FILLER_0_17_67
*1288 FILLER_0_17_69
*1289 FILLER_0_17_86
*1290 FILLER_0_18_102
*1291 FILLER_0_18_104
*1292 FILLER_0_18_107
*1293 FILLER_0_18_111
*1294 FILLER_0_18_115
*1295 FILLER_0_18_131
*1296 FILLER_0_18_137
*1297 FILLER_0_18_141
*1298 FILLER_0_18_158
*1299 FILLER_0_18_162
*1300 FILLER_0_18_166
*1301 FILLER_0_18_174
*1302 FILLER_0_18_177
*1303 FILLER_0_18_181
*1304 FILLER_0_18_2
*1305 FILLER_0_18_214
*1306 FILLER_0_18_218
*1307 FILLER_0_18_234
*1308 FILLER_0_18_242
*1309 FILLER_0_18_247
*1310 FILLER_0_18_255
*1311 FILLER_0_18_259
*1312 FILLER_0_18_261
*1313 FILLER_0_18_291
*1314 FILLER_0_18_295
*1315 FILLER_0_18_311
*1316 FILLER_0_18_317
*1317 FILLER_0_18_349
*1318 FILLER_0_18_365
*1319 FILLER_0_18_373
*1320 FILLER_0_18_80
*1321 FILLER_0_18_94
*1322 FILLER_0_19_113
*1323 FILLER_0_19_117
*1324 FILLER_0_19_121
*1325 FILLER_0_19_129
*1326 FILLER_0_19_133
*1327 FILLER_0_19_135
*1328 FILLER_0_19_138
*1329 FILLER_0_19_14
*1330 FILLER_0_19_165
*1331 FILLER_0_19_18
*1332 FILLER_0_19_189
*1333 FILLER_0_19_196
*1334 FILLER_0_19_200
*1335 FILLER_0_19_208
*1336 FILLER_0_19_272
*1337 FILLER_0_19_276
*1338 FILLER_0_19_282
*1339 FILLER_0_19_290
*1340 FILLER_0_19_294
*1341 FILLER_0_19_297
*1342 FILLER_0_19_299
*1343 FILLER_0_19_333
*1344 FILLER_0_19_349
*1345 FILLER_0_19_352
*1346 FILLER_0_19_368
*1347 FILLER_0_19_372
*1348 FILLER_0_19_374
*1349 FILLER_0_19_60
*1350 FILLER_0_19_68
*1351 FILLER_0_19_80
*1352 FILLER_0_19_84
*1353 FILLER_0_19_87
*1354 FILLER_0_1_10
*1355 FILLER_0_1_135
*1356 FILLER_0_1_139
*1357 FILLER_0_1_171
*1358 FILLER_0_1_199
*1359 FILLER_0_1_203
*1360 FILLER_0_1_207
*1361 FILLER_0_1_209
*1362 FILLER_0_1_212
*1363 FILLER_0_1_220
*1364 FILLER_0_1_247
*1365 FILLER_0_1_251
*1366 FILLER_0_1_279
*1367 FILLER_0_1_282
*1368 FILLER_0_1_286
*1369 FILLER_0_1_302
*1370 FILLER_0_1_310
*1371 FILLER_0_1_314
*1372 FILLER_0_1_343
*1373 FILLER_0_1_347
*1374 FILLER_0_1_349
*1375 FILLER_0_1_352
*1376 FILLER_0_1_360
*1377 FILLER_0_1_362
*1378 FILLER_0_1_373
*1379 FILLER_0_1_72
*1380 FILLER_0_1_76
*1381 FILLER_0_1_79
*1382 FILLER_0_20_116
*1383 FILLER_0_20_120
*1384 FILLER_0_20_124
*1385 FILLER_0_20_171
*1386 FILLER_0_20_177
*1387 FILLER_0_20_203
*1388 FILLER_0_20_207
*1389 FILLER_0_20_211
*1390 FILLER_0_20_28
*1391 FILLER_0_20_317
*1392 FILLER_0_20_32
*1393 FILLER_0_20_321
*1394 FILLER_0_20_34
*1395 FILLER_0_20_353
*1396 FILLER_0_20_369
*1397 FILLER_0_20_37
*1398 FILLER_0_20_373
*1399 FILLER_0_20_54
*1400 FILLER_0_20_70
*1401 FILLER_0_20_74
*1402 FILLER_0_20_84
*1403 FILLER_0_20_86
*1404 FILLER_0_21_118
*1405 FILLER_0_21_122
*1406 FILLER_0_21_136
*1407 FILLER_0_21_142
*1408 FILLER_0_21_146
*1409 FILLER_0_21_154
*1410 FILLER_0_21_158
*1411 FILLER_0_21_188
*1412 FILLER_0_21_190
*1413 FILLER_0_21_205
*1414 FILLER_0_21_209
*1415 FILLER_0_21_212
*1416 FILLER_0_21_216
*1417 FILLER_0_21_232
*1418 FILLER_0_21_236
*1419 FILLER_0_21_240
*1420 FILLER_0_21_244
*1421 FILLER_0_21_260
*1422 FILLER_0_21_264
*1423 FILLER_0_21_276
*1424 FILLER_0_21_28
*1425 FILLER_0_21_282
*1426 FILLER_0_21_312
*1427 FILLER_0_21_316
*1428 FILLER_0_21_348
*1429 FILLER_0_21_352
*1430 FILLER_0_21_36
*1431 FILLER_0_21_368
*1432 FILLER_0_21_372
*1433 FILLER_0_21_374
*1434 FILLER_0_21_38
*1435 FILLER_0_21_47
*1436 FILLER_0_21_63
*1437 FILLER_0_21_67
*1438 FILLER_0_21_69
*1439 FILLER_0_21_88
*1440 FILLER_0_21_92
*1441 FILLER_0_21_94
*1442 FILLER_0_22_101
*1443 FILLER_0_22_112
*1444 FILLER_0_22_114
*1445 FILLER_0_22_142
*1446 FILLER_0_22_144
*1447 FILLER_0_22_154
*1448 FILLER_0_22_158
*1449 FILLER_0_22_174
*1450 FILLER_0_22_187
*1451 FILLER_0_22_211
*1452 FILLER_0_22_215
*1453 FILLER_0_22_219
*1454 FILLER_0_22_227
*1455 FILLER_0_22_239
*1456 FILLER_0_22_243
*1457 FILLER_0_22_247
*1458 FILLER_0_22_256
*1459 FILLER_0_22_260
*1460 FILLER_0_22_266
*1461 FILLER_0_22_280
*1462 FILLER_0_22_284
*1463 FILLER_0_22_288
*1464 FILLER_0_22_298
*1465 FILLER_0_22_302
*1466 FILLER_0_22_31
*1467 FILLER_0_22_310
*1468 FILLER_0_22_314
*1469 FILLER_0_22_317
*1470 FILLER_0_22_349
*1471 FILLER_0_22_365
*1472 FILLER_0_22_37
*1473 FILLER_0_22_373
*1474 FILLER_0_22_53
*1475 FILLER_0_22_55
*1476 FILLER_0_22_62
*1477 FILLER_0_22_80
*1478 FILLER_0_22_96
*1479 FILLER_0_22_98
*1480 FILLER_0_23_135
*1481 FILLER_0_23_137
*1482 FILLER_0_23_142
*1483 FILLER_0_23_148
*1484 FILLER_0_23_152
*1485 FILLER_0_23_156
*1486 FILLER_0_23_207
*1487 FILLER_0_23_209
*1488 FILLER_0_23_221
*1489 FILLER_0_23_243
*1490 FILLER_0_23_247
*1491 FILLER_0_23_251
*1492 FILLER_0_23_267
*1493 FILLER_0_23_271
*1494 FILLER_0_23_274
*1495 FILLER_0_23_278
*1496 FILLER_0_23_28
*1497 FILLER_0_23_282
*1498 FILLER_0_23_290
*1499 FILLER_0_23_296
*1500 FILLER_0_23_328
*1501 FILLER_0_23_344
*1502 FILLER_0_23_348
*1503 FILLER_0_23_352
*1504 FILLER_0_23_36
*1505 FILLER_0_23_368
*1506 FILLER_0_23_372
*1507 FILLER_0_23_374
*1508 FILLER_0_23_40
*1509 FILLER_0_23_72
*1510 FILLER_0_23_91
*1511 FILLER_0_23_95
*1512 FILLER_0_23_99
*1513 FILLER_0_24_107
*1514 FILLER_0_24_115
*1515 FILLER_0_24_117
*1516 FILLER_0_24_125
*1517 FILLER_0_24_157
*1518 FILLER_0_24_186
*1519 FILLER_0_24_188
*1520 FILLER_0_24_218
*1521 FILLER_0_24_222
*1522 FILLER_0_24_240
*1523 FILLER_0_24_242
*1524 FILLER_0_24_253
*1525 FILLER_0_24_257
*1526 FILLER_0_24_261
*1527 FILLER_0_24_277
*1528 FILLER_0_24_28
*1529 FILLER_0_24_285
*1530 FILLER_0_24_295
*1531 FILLER_0_24_302
*1532 FILLER_0_24_306
*1533 FILLER_0_24_314
*1534 FILLER_0_24_317
*1535 FILLER_0_24_32
*1536 FILLER_0_24_34
*1537 FILLER_0_24_349
*1538 FILLER_0_24_365
*1539 FILLER_0_24_37
*1540 FILLER_0_24_373
*1541 FILLER_0_24_69
*1542 FILLER_0_24_93
*1543 FILLER_0_24_97
*1544 FILLER_0_25_116
*1545 FILLER_0_25_132
*1546 FILLER_0_25_142
*1547 FILLER_0_25_158
*1548 FILLER_0_25_170
*1549 FILLER_0_25_18
*1550 FILLER_0_25_2
*1551 FILLER_0_25_202
*1552 FILLER_0_25_212
*1553 FILLER_0_25_228
*1554 FILLER_0_25_234
*1555 FILLER_0_25_266
*1556 FILLER_0_25_270
*1557 FILLER_0_25_317
*1558 FILLER_0_25_349
*1559 FILLER_0_25_352
*1560 FILLER_0_25_360
*1561 FILLER_0_25_364
*1562 FILLER_0_25_366
*1563 FILLER_0_25_48
*1564 FILLER_0_25_56
*1565 FILLER_0_25_60
*1566 FILLER_0_25_65
*1567 FILLER_0_25_69
*1568 FILLER_0_25_72
*1569 FILLER_0_25_80
*1570 FILLER_0_25_84
*1571 FILLER_0_26_102
*1572 FILLER_0_26_104
*1573 FILLER_0_26_107
*1574 FILLER_0_26_133
*1575 FILLER_0_26_148
*1576 FILLER_0_26_156
*1577 FILLER_0_26_172
*1578 FILLER_0_26_174
*1579 FILLER_0_26_177
*1580 FILLER_0_26_241
*1581 FILLER_0_26_247
*1582 FILLER_0_26_249
*1583 FILLER_0_26_258
*1584 FILLER_0_26_274
*1585 FILLER_0_26_31
*1586 FILLER_0_26_317
*1587 FILLER_0_26_349
*1588 FILLER_0_26_365
*1589 FILLER_0_26_373
*1590 FILLER_0_26_41
*1591 FILLER_0_26_73
*1592 FILLER_0_26_94
*1593 FILLER_0_27_105
*1594 FILLER_0_27_109
*1595 FILLER_0_27_128
*1596 FILLER_0_27_130
*1597 FILLER_0_27_142
*1598 FILLER_0_27_158
*1599 FILLER_0_27_165
*1600 FILLER_0_27_169
*1601 FILLER_0_27_185
*1602 FILLER_0_27_193
*1603 FILLER_0_27_199
*1604 FILLER_0_27_203
*1605 FILLER_0_27_207
*1606 FILLER_0_27_209
*1607 FILLER_0_27_212
*1608 FILLER_0_27_214
*1609 FILLER_0_27_244
*1610 FILLER_0_27_248
*1611 FILLER_0_27_278
*1612 FILLER_0_27_28
*1613 FILLER_0_27_282
*1614 FILLER_0_27_286
*1615 FILLER_0_27_290
*1616 FILLER_0_27_297
*1617 FILLER_0_27_329
*1618 FILLER_0_27_345
*1619 FILLER_0_27_349
*1620 FILLER_0_27_352
*1621 FILLER_0_27_368
*1622 FILLER_0_27_372
*1623 FILLER_0_27_374
*1624 FILLER_0_27_44
*1625 FILLER_0_27_46
*1626 FILLER_0_27_58
*1627 FILLER_0_27_66
*1628 FILLER_0_27_89
*1629 FILLER_0_27_93
*1630 FILLER_0_28_103
*1631 FILLER_0_28_107
*1632 FILLER_0_28_123
*1633 FILLER_0_28_130
*1634 FILLER_0_28_142
*1635 FILLER_0_28_146
*1636 FILLER_0_28_162
*1637 FILLER_0_28_166
*1638 FILLER_0_28_182
*1639 FILLER_0_28_192
*1640 FILLER_0_28_196
*1641 FILLER_0_28_232
*1642 FILLER_0_28_240
*1643 FILLER_0_28_244
*1644 FILLER_0_28_247
*1645 FILLER_0_28_263
*1646 FILLER_0_28_267
*1647 FILLER_0_28_273
*1648 FILLER_0_28_277