*SPEF "ieee 1481-1999"
*DESIGN "ram_controller"
*DATE "11:11:11 Fri 11 11, 1111"
*VENDOR "OpenRCX"
*PROGRAM "Parallel Extraction"
*VERSION "1.0"
*DESIGN_FLOW "NAME_SCOPE LOCAL" "PIN_CAP NONE"
*DIVIDER /
*DELIMITER :
*BUS_DELIMITER []
*T_UNIT 1 NS
*C_UNIT 1 PF
*R_UNIT 1 OHM
*L_UNIT 1 HENRY

*NAME_MAP
*1 A_all[0]
*2 A_all[1]
*3 A_all[2]
*4 A_all[3]
*5 A_all[4]
*6 A_all[5]
*7 A_all[6]
*8 A_all[7]
*9 A_all[8]
*10 CEN_all
*11 D_all[0]
*12 D_all[1]
*13 D_all[2]
*14 D_all[3]
*15 D_all[4]
*16 D_all[5]
*17 D_all[6]
*18 D_all[7]
*19 GWEN_0
*20 GWEN_1
*21 GWEN_2
*22 GWEN_3
*23 GWEN_4
*24 GWEN_5
*25 GWEN_6
*26 GWEN_7
*27 Q0[0]
*28 Q0[1]
*29 Q0[2]
*30 Q0[3]
*31 Q0[4]
*32 Q0[5]
*33 Q0[6]
*34 Q0[7]
*35 Q1[0]
*36 Q1[1]
*37 Q1[2]
*38 Q1[3]
*39 Q1[4]
*40 Q1[5]
*41 Q1[6]
*42 Q1[7]
*43 Q2[0]
*44 Q2[1]
*45 Q2[2]
*46 Q2[3]
*47 Q2[4]
*48 Q2[5]
*49 Q2[6]
*50 Q2[7]
*51 Q3[0]
*52 Q3[1]
*53 Q3[2]
*54 Q3[3]
*55 Q3[4]
*56 Q3[5]
*57 Q3[6]
*58 Q3[7]
*59 Q4[0]
*60 Q4[1]
*61 Q4[2]
*62 Q4[3]
*63 Q4[4]
*64 Q4[5]
*65 Q4[6]
*66 Q4[7]
*67 Q5[0]
*68 Q5[1]
*69 Q5[2]
*70 Q5[3]
*71 Q5[4]
*72 Q5[5]
*73 Q5[6]
*74 Q5[7]
*75 Q6[0]
*76 Q6[1]
*77 Q6[2]
*78 Q6[3]
*79 Q6[4]
*80 Q6[5]
*81 Q6[6]
*82 Q6[7]
*83 Q7[0]
*84 Q7[1]
*85 Q7[2]
*86 Q7[3]
*87 Q7[4]
*88 Q7[5]
*89 Q7[6]
*90 Q7[7]
*91 net126
*92 net127
*93 net128
*94 net129
*95 net130
*96 net131
*97 net132
*98 net133
*99 WEb_raw
*100 bus_in[0]
*101 bus_in[1]
*102 bus_in[2]
*103 bus_in[3]
*104 bus_in[4]
*105 bus_in[5]
*106 bus_in[6]
*107 bus_in[7]
*108 bus_out[0]
*109 bus_out[1]
*110 bus_out[2]
*111 bus_out[3]
*112 bus_out[4]
*113 bus_out[5]
*114 bus_out[6]
*115 bus_out[7]
*116 ram_enabled
*117 requested_addr[0]
*118 requested_addr[10]
*119 requested_addr[11]
*120 requested_addr[12]
*121 requested_addr[13]
*122 requested_addr[14]
*123 requested_addr[15]
*124 requested_addr[1]
*125 requested_addr[2]
*126 requested_addr[3]
*127 requested_addr[4]
*128 requested_addr[5]
*129 requested_addr[6]
*130 requested_addr[7]
*131 requested_addr[8]
*132 requested_addr[9]
*133 rst
*136 wb_clk_i
*137 _000_
*138 _001_
*139 _002_
*140 _003_
*141 _004_
*142 _005_
*143 _006_
*144 _007_
*145 _008_
*146 _009_
*147 _010_
*148 _011_
*149 _012_
*150 _013_
*151 _014_
*152 _015_
*153 _016_
*154 _017_
*155 _018_
*156 _019_
*157 _020_
*158 _021_
*159 _022_
*160 _023_
*161 _024_
*162 _025_
*163 _026_
*164 _027_
*165 _028_
*166 _029_
*167 _030_
*168 _031_
*169 _032_
*170 _033_
*171 _034_
*172 _035_
*173 _036_
*174 _037_
*175 _038_
*176 _039_
*177 _040_
*178 _041_
*179 _042_
*180 _043_
*181 _044_
*182 _045_
*183 _046_
*184 _047_
*185 _048_
*186 _049_
*187 _050_
*188 _051_
*189 _052_
*190 _053_
*191 _054_
*192 _055_
*193 _056_
*194 _057_
*195 _058_
*196 _059_
*197 _060_
*198 _061_
*199 _062_
*200 _063_
*201 _064_
*202 _065_
*203 _066_
*204 _067_
*205 _068_
*206 _069_
*207 _070_
*208 _071_
*209 _072_
*210 _073_
*211 _074_
*212 _075_
*213 _076_
*214 _077_
*215 _078_
*216 _079_
*217 _080_
*218 _081_
*219 _082_
*220 _083_
*221 _084_
*222 _085_
*223 _086_
*224 _087_
*225 _088_
*226 _089_
*227 _090_
*228 _091_
*229 _092_
*230 _093_
*231 _094_
*232 _095_
*233 _096_
*234 _097_
*235 _098_
*236 _099_
*237 _100_
*238 _101_
*239 _102_
*240 _103_
*241 _104_
*242 _105_
*243 aaaa\[0\]
*244 aaaa\[10\]
*245 aaaa\[11\]
*246 aaaa\[12\]
*247 aaaa\[13\]
*248 aaaa\[14\]
*249 aaaa\[15\]
*250 aaaa\[1\]
*251 aaaa\[2\]
*252 aaaa\[3\]
*253 aaaa\[4\]
*254 aaaa\[5\]
*255 aaaa\[6\]
*256 aaaa\[7\]
*257 aaaa\[8\]
*258 aaaa\[9\]
*259 clknet_0_wb_clk_i
*260 clknet_1_0__leaf_wb_clk_i
*261 clknet_1_1__leaf_wb_clk_i
*262 net1
*263 net10
*264 net100
*265 net101
*266 net102
*267 net103
*268 net104
*269 net105
*270 net106
*271 net107
*272 net108
*273 net109
*274 net11
*275 net110
*276 net111
*277 net112
*278 net113
*279 net114
*280 net115
*281 net116
*282 net117
*283 net118
*284 net119
*285 net12
*286 net120
*287 net121
*288 net122
*289 net123
*290 net124
*291 net125
*292 net13
*293 net14
*294 net15
*295 net16
*296 net17
*297 net18
*298 net19
*299 net2
*300 net20
*301 net21
*302 net22
*303 net23
*304 net24
*305 net25
*306 net26
*307 net27
*308 net28
*309 net29
*310 net3
*311 net30
*312 net31
*313 net32
*314 net33
*315 net34
*316 net35
*317 net36
*318 net37
*319 net38
*320 net39
*321 net4
*322 net40
*323 net41
*324 net42
*325 net43
*326 net44
*327 net45
*328 net46
*329 net47
*330 net48
*331 net49
*332 net5
*333 net50
*334 net51
*335 net52
*336 net53
*337 net54
*338 net55
*339 net56
*340 net57
*341 net58
*342 net59
*343 net6
*344 net60
*345 net61
*346 net62
*347 net63
*348 net64
*349 net65
*350 net66
*351 net67
*352 net68
*353 net69
*354 net7
*355 net70
*356 net71
*357 net72
*358 net73
*359 net74
*360 net75
*361 net76
*362 net77
*363 net78
*364 net79
*365 net8
*366 net80
*367 net81
*368 net82
*369 net83
*370 net84
*371 net85
*372 net86
*373 net87
*374 net88
*375 net89
*376 net9
*377 net90
*378 net91
*379 net92
*380 net93
*381 net94
*382 net95
*383 net96
*384 net97
*385 net98
*386 net99
*387 ANTENNA__108__A4
*388 ANTENNA__109__A1
*389 ANTENNA__110__B2
*390 ANTENNA__111__I
*391 ANTENNA__112__B2
*392 ANTENNA__112__C1
*393 ANTENNA__113__A4
*394 ANTENNA__115__A2
*395 ANTENNA__116__A4
*396 ANTENNA__117__A1
*397 ANTENNA__118__B2
*398 ANTENNA__119__I
*399 ANTENNA__120__B2
*400 ANTENNA__120__C1
*401 ANTENNA__121__A4
*402 ANTENNA__123__A2
*403 ANTENNA__124__A4
*404 ANTENNA__125__A1
*405 ANTENNA__126__B2
*406 ANTENNA__127__I
*407 ANTENNA__128__B2
*408 ANTENNA__128__C1
*409 ANTENNA__129__A4
*410 ANTENNA__131__A2
*411 ANTENNA__132__A4
*412 ANTENNA__134__B2
*413 ANTENNA__135__I
*414 ANTENNA__136__B1
*415 ANTENNA__136__B2
*416 ANTENNA__136__C1
*417 ANTENNA__137__A4
*418 ANTENNA__138__A2
*419 ANTENNA__138__A3
*420 ANTENNA__139__A2
*421 ANTENNA__140__A4
*422 ANTENNA__142__A2
*423 ANTENNA__142__B1
*424 ANTENNA__142__B2
*425 ANTENNA__144__A1
*426 ANTENNA__145__A1
*427 ANTENNA__146__I
*428 ANTENNA__147__I
*429 ANTENNA__149__I
*430 ANTENNA__151__I
*431 ANTENNA__154__I
*432 ANTENNA__159__I
*433 ANTENNA__162__I
*434 ANTENNA__163__A4
*435 ANTENNA__167__A1
*436 ANTENNA__167__A2
*437 ANTENNA__168__I
*438 ANTENNA__169__A2
*439 ANTENNA__173__A2
*440 ANTENNA__176__I
*441 ANTENNA__180__A4
*442 ANTENNA__181__A2
*443 ANTENNA__184__I
*444 ANTENNA__185__B2
*445 ANTENNA__185__C1
*446 ANTENNA__188__A4
*447 ANTENNA__191__A2
*448 ANTENNA__192__A4
*449 ANTENNA__194__B2
*450 ANTENNA__195__I
*451 ANTENNA__196__B2
*452 ANTENNA__196__C1
*453 ANTENNA__197__A4
*454 ANTENNA__199__A2
*455 ANTENNA__200__A4
*456 ANTENNA__202__B2
*457 ANTENNA__203__I
*458 ANTENNA__204__B2
*459 ANTENNA__204__C1
*460 ANTENNA__206__A4
*461 ANTENNA__210__A2
*462 ANTENNA__212__A4
*463 ANTENNA__214__B2
*464 ANTENNA__215__I
*465 ANTENNA__216__I
*466 ANTENNA__218__I
*467 ANTENNA__220__B2
*468 ANTENNA__220__C1
*469 ANTENNA__223__A4
*470 ANTENNA__224__I
*471 ANTENNA__227__A2
*472 ANTENNA__228__CLK
*473 ANTENNA__228__D
*474 ANTENNA__229__CLK
*475 ANTENNA__229__D
*476 ANTENNA__230__CLK
*477 ANTENNA__230__D
*478 ANTENNA__231__CLK
*479 ANTENNA__232__CLK
*480 ANTENNA__233__CLK
*481 ANTENNA__234__CLK
*482 ANTENNA__235__CLK
*483 ANTENNA__236__CLK
*484 ANTENNA__237__CLK
*485 ANTENNA__238__CLK
*486 ANTENNA__239__CLK
*487 ANTENNA__240__CLK
*488 ANTENNA__241__CLK
*489 ANTENNA__242__CLK
*490 ANTENNA__243__CLK
*491 ANTENNA__261__I
*492 ANTENNA__262__I
*493 ANTENNA__263__I
*494 ANTENNA__264__I
*495 ANTENNA__265__I
*496 ANTENNA__266__I
*497 ANTENNA__267__I
*498 ANTENNA__268__I
*499 ANTENNA__269__I
*500 ANTENNA_clkbuf_0_wb_clk_i_I
*501 ANTENNA_clkbuf_1_0__f_wb_clk_i_I
*502 ANTENNA_clkbuf_1_1__f_wb_clk_i_I
*503 ANTENNA_input10_I
*504 ANTENNA_input11_I
*505 ANTENNA_input12_I
*506 ANTENNA_input13_I
*507 ANTENNA_input14_I
*508 ANTENNA_input15_I
*509 ANTENNA_input16_I
*510 ANTENNA_input17_I
*511 ANTENNA_input18_I
*512 ANTENNA_input19_I
*513 ANTENNA_input1_I
*514 ANTENNA_input20_I
*515 ANTENNA_input21_I
*516 ANTENNA_input22_I
*517 ANTENNA_input23_I
*518 ANTENNA_input24_I
*519 ANTENNA_input25_I
*520 ANTENNA_input26_I
*521 ANTENNA_input27_I
*522 ANTENNA_input28_I
*523 ANTENNA_input29_I
*524 ANTENNA_input2_I
*525 ANTENNA_input30_I
*526 ANTENNA_input31_I
*527 ANTENNA_input32_I
*528 ANTENNA_input33_I
*529 ANTENNA_input34_I
*530 ANTENNA_input35_I
*531 ANTENNA_input36_I
*532 ANTENNA_input37_I
*533 ANTENNA_input38_I
*534 ANTENNA_input39_I
*535 ANTENNA_input3_I
*536 ANTENNA_input40_I
*537 ANTENNA_input41_I
*538 ANTENNA_input42_I
*539 ANTENNA_input43_I
*540 ANTENNA_input44_I
*541 ANTENNA_input45_I
*542 ANTENNA_input46_I
*543 ANTENNA_input47_I
*544 ANTENNA_input48_I
*545 ANTENNA_input49_I
*546 ANTENNA_input4_I
*547 ANTENNA_input50_I
*548 ANTENNA_input51_I
*549 ANTENNA_input52_I
*550 ANTENNA_input53_I
*551 ANTENNA_input54_I
*552 ANTENNA_input55_I
*553 ANTENNA_input56_I
*554 ANTENNA_input57_I
*555 ANTENNA_input58_I
*556 ANTENNA_input59_I
*557 ANTENNA_input5_I
*558 ANTENNA_input60_I
*559 ANTENNA_input61_I
*560 ANTENNA_input62_I
*561 ANTENNA_input63_I
*562 ANTENNA_input64_I
*563 ANTENNA_input65_I
*564 ANTENNA_input66_I
*565 ANTENNA_input67_I
*566 ANTENNA_input68_I
*567 ANTENNA_input69_I
*568 ANTENNA_input6_I
*569 ANTENNA_input70_I
*570 ANTENNA_input71_I
*571 ANTENNA_input72_I
*572 ANTENNA_input73_I
*573 ANTENNA_input74_I
*574 ANTENNA_input75_I
*575 ANTENNA_input76_I
*576 ANTENNA_input77_I
*577 ANTENNA_input78_I
*578 ANTENNA_input79_I
*579 ANTENNA_input7_I
*580 ANTENNA_input80_I
*581 ANTENNA_input81_I
*582 ANTENNA_input82_I
*583 ANTENNA_input83_I
*584 ANTENNA_input84_I
*585 ANTENNA_input85_I
*586 ANTENNA_input86_I
*587 ANTENNA_input87_I
*588 ANTENNA_input88_I
*589 ANTENNA_input89_I
*590 ANTENNA_input8_I
*591 ANTENNA_input90_I
*592 ANTENNA_input91_I
*593 ANTENNA_input9_I
*594 ANTENNA_output100_I
*595 ANTENNA_output110_I
*596 ANTENNA_output111_I
*597 ANTENNA_output112_I
*598 ANTENNA_output113_I
*599 ANTENNA_output114_I
*600 ANTENNA_output115_I
*601 ANTENNA_output116_I
*602 ANTENNA_output117_I
*603 ANTENNA_output118_I
*604 ANTENNA_output119_I
*605 ANTENNA_output120_I
*606 ANTENNA_output121_I
*607 ANTENNA_output122_I
*608 ANTENNA_output123_I
*609 ANTENNA_output124_I
*610 ANTENNA_output125_I
*611 ANTENNA_output92_I
*612 ANTENNA_output93_I
*613 ANTENNA_output94_I
*614 ANTENNA_output95_I
*615 ANTENNA_output96_I
*616 ANTENNA_output97_I
*617 ANTENNA_output98_I
*618 ANTENNA_output99_I
*619 FILLER_0_0_100
*620 FILLER_0_0_1017
*621 FILLER_0_0_1019
*622 FILLER_0_0_1022
*623 FILLER_0_0_104
*624 FILLER_0_0_1049
*625 FILLER_0_0_1053
*626 FILLER_0_0_1082
*627 FILLER_0_0_1096
*628 FILLER_0_0_1112
*629 FILLER_0_0_1130
*630 FILLER_0_0_1146
*631 FILLER_0_0_1164
*632 FILLER_0_0_1180
*633 FILLER_0_0_1189
*634 FILLER_0_0_1192
*635 FILLER_0_0_120
*636 FILLER_0_0_1208
*637 FILLER_0_0_1212
*638 FILLER_0_0_1221
*639 FILLER_0_0_1223
*640 FILLER_0_0_1226
*641 FILLER_0_0_124
*642 FILLER_0_0_1242
*643 FILLER_0_0_1244
*644 FILLER_0_0_1253
*645 FILLER_0_0_1257
*646 FILLER_0_0_126
*647 FILLER_0_0_1260
*648 FILLER_0_0_1276
*649 FILLER_0_0_1285
*650 FILLER_0_0_1289
*651 FILLER_0_0_1291
*652 FILLER_0_0_1294
*653 FILLER_0_0_1302
*654 FILLER_0_0_1306
*655 FILLER_0_0_1308
*656 FILLER_0_0_131
*657 FILLER_0_0_1317
*658 FILLER_0_0_1325
*659 FILLER_0_0_1328
*660 FILLER_0_0_1336
*661 FILLER_0_0_1340
*662 FILLER_0_0_1349
*663 FILLER_0_0_135
*664 FILLER_0_0_1357
*665 FILLER_0_0_1359
*666 FILLER_0_0_1362
*667 FILLER_0_0_1370
*668 FILLER_0_0_1372
*669 FILLER_0_0_138
*670 FILLER_0_0_1381
*671 FILLER_0_0_1389
*672 FILLER_0_0_1393
*673 FILLER_0_0_1396
*674 FILLER_0_0_1404
*675 FILLER_0_0_1413
*676 FILLER_0_0_1421
*677 FILLER_0_0_1425
*678 FILLER_0_0_1427
*679 FILLER_0_0_1430
*680 FILLER_0_0_1434
*681 FILLER_0_0_1436
*682 FILLER_0_0_1445
*683 FILLER_0_0_1461
*684 FILLER_0_0_1464
*685 FILLER_0_0_1468
*686 FILLER_0_0_1477
*687 FILLER_0_0_1493
*688 FILLER_0_0_1495
*689 FILLER_0_0_1498
*690 FILLER_0_0_1500
*691 FILLER_0_0_1509
*692 FILLER_0_0_1525
*693 FILLER_0_0_1527
*694 FILLER_0_0_1532
*695 FILLER_0_0_1534
*696 FILLER_0_0_154
*697 FILLER_0_0_1541
*698 FILLER_0_0_1557
*699 FILLER_0_0_1561
*700 FILLER_0_0_1566
*701 FILLER_0_0_1573
*702 FILLER_0_0_158
*703 FILLER_0_0_1589
*704 FILLER_0_0_1593
*705 FILLER_0_0_1595
*706 FILLER_0_0_1606
*707 FILLER_0_0_1610
*708 FILLER_0_0_1618
*709 FILLER_0_0_1622
*710 FILLER_0_0_163
*711 FILLER_0_0_1650
*712 FILLER_0_0_1656
*713 FILLER_0_0_167
*714 FILLER_0_0_1674
*715 FILLER_0_0_1682
*716 FILLER_0_0_1686
*717 FILLER_0_0_169
*718 FILLER_0_0_172
*719 FILLER_0_0_1742
*720 FILLER_0_0_1746
*721 FILLER_0_0_1750
*722 FILLER_0_0_1754
*723 FILLER_0_0_1758
*724 FILLER_0_0_1765
*725 FILLER_0_0_1767
*726 FILLER_0_0_1770
*727 FILLER_0_0_1774
*728 FILLER_0_0_1778
*729 FILLER_0_0_1782
*730 FILLER_0_0_1812
*731 FILLER_0_0_1831
*732 FILLER_0_0_1835
*733 FILLER_0_0_1844
*734 FILLER_0_0_1848
*735 FILLER_0_0_1852
*736 FILLER_0_0_1866
*737 FILLER_0_0_1879
*738 FILLER_0_0_188
*739 FILLER_0_0_1883
*740 FILLER_0_0_1893
*741 FILLER_0_0_190
*742 FILLER_0_0_1901
*743 FILLER_0_0_1903
*744 FILLER_0_0_1906
*745 FILLER_0_0_1912
*746 FILLER_0_0_1916
*747 FILLER_0_0_1918
*748 FILLER_0_0_1925
*749 FILLER_0_0_1933
*750 FILLER_0_0_1937
*751 FILLER_0_0_1940
*752 FILLER_0_0_1944
*753 FILLER_0_0_195
*754 FILLER_0_0_1967
*755 FILLER_0_0_1971
*756 FILLER_0_0_1974
*757 FILLER_0_0_1978
*758 FILLER_0_0_1980
*759 FILLER_0_0_1989
*760 FILLER_0_0_2
*761 FILLER_0_0_2005
*762 FILLER_0_0_2008
*763 FILLER_0_0_2012
*764 FILLER_0_0_2021
*765 FILLER_0_0_203
*766 FILLER_0_0_2037
*767 FILLER_0_0_2039
*768 FILLER_0_0_2042
*769 FILLER_0_0_2044
*770 FILLER_0_0_2053
*771 FILLER_0_0_206
*772 FILLER_0_0_2069
*773 FILLER_0_0_2071
*774 FILLER_0_0_2076
*775 FILLER_0_0_2078
*776 FILLER_0_0_2085
*777 FILLER_0_0_2101
*778 FILLER_0_0_2105
*779 FILLER_0_0_2110
*780 FILLER_0_0_2117
*781 FILLER_0_0_2133
*782 FILLER_0_0_2137
*783 FILLER_0_0_2139
*784 FILLER_0_0_2150
*785 FILLER_0_0_2166
*786 FILLER_0_0_2184
*787 FILLER_0_0_2200
*788 FILLER_0_0_2218
*789 FILLER_0_0_222
*790 FILLER_0_0_2234
*791 FILLER_0_0_2252
*792 FILLER_0_0_2268
*793 FILLER_0_0_227
*794 FILLER_0_0_2277
*795 FILLER_0_0_2280
*796 FILLER_0_0_2296
*797 FILLER_0_0_2300
*798 FILLER_0_0_2309
*799 FILLER_0_0_2311
*800 FILLER_0_0_2314
*801 FILLER_0_0_2330
*802 FILLER_0_0_2332
*803 FILLER_0_0_2341
*804 FILLER_0_0_2345
*805 FILLER_0_0_2348
*806 FILLER_0_0_235
*807 FILLER_0_0_2364
*808 FILLER_0_0_237
*809 FILLER_0_0_2375
*810 FILLER_0_0_2379
*811 FILLER_0_0_2382
*812 FILLER_0_0_2390
*813 FILLER_0_0_2394
*814 FILLER_0_0_2396
*815 FILLER_0_0_240
*816 FILLER_0_0_2407
*817 FILLER_0_0_2411
*818 FILLER_0_0_2413
*819 FILLER_0_0_2416
*820 FILLER_0_0_2424
*821 FILLER_0_0_2428
*822 FILLER_0_0_2439
*823 FILLER_0_0_2447
*824 FILLER_0_0_2450
*825 FILLER_0_0_2458
*826 FILLER_0_0_2460
*827 FILLER_0_0_2471
*828 FILLER_0_0_2479
*829 FILLER_0_0_248
*830 FILLER_0_0_2481
*831 FILLER_0_0_2484
*832 FILLER_0_0_2492
*833 FILLER_0_0_2503
*834 FILLER_0_0_2511
*835 FILLER_0_0_2515
*836 FILLER_0_0_2518
*837 FILLER_0_0_252
*838 FILLER_0_0_2522
*839 FILLER_0_0_2524
*840 FILLER_0_0_2535
*841 FILLER_0_0_254
*842 FILLER_0_0_2543
*843 FILLER_0_0_2547
*844 FILLER_0_0_2549
*845 FILLER_0_0_2552
*846 FILLER_0_0_2556
*847 FILLER_0_0_2567
*848 FILLER_0_0_2583
*849 FILLER_0_0_2586
*850 FILLER_0_0_2588
*851 FILLER_0_0_259
*852 FILLER_0_0_2599
*853 FILLER_0_0_2615
*854 FILLER_0_0_2617
*855 FILLER_0_0_2620
*856 FILLER_0_0_267
*857 FILLER_0_0_271
*858 FILLER_0_0_274
*859 FILLER_0_0_282
*860 FILLER_0_0_286
*861 FILLER_0_0_291
*862 FILLER_0_0_299
*863 FILLER_0_0_303
*864 FILLER_0_0_305
*865 FILLER_0_0_308
*866 FILLER_0_0_316
*867 FILLER_0_0_318
*868 FILLER_0_0_323
*869 FILLER_0_0_339
*870 FILLER_0_0_342
*871 FILLER_0_0_346
*872 FILLER_0_0_36
*873 FILLER_0_0_376
*874 FILLER_0_0_380
*875 FILLER_0_0_410
*876 FILLER_0_0_414
*877 FILLER_0_0_441
*878 FILLER_0_0_444
*879 FILLER_0_0_446
*880 FILLER_0_0_473
*881 FILLER_0_0_475
*882 FILLER_0_0_478
*883 FILLER_0_0_505
*884 FILLER_0_0_509
*885 FILLER_0_0_538
*886 FILLER_0_0_542
*887 FILLER_0_0_572
*888 FILLER_0_0_576
*889 FILLER_0_0_606
*890 FILLER_0_0_610
*891 FILLER_0_0_640
*892 FILLER_0_0_644
*893 FILLER_0_0_674
*894 FILLER_0_0_678
*895 FILLER_0_0_682
*896 FILLER_0_0_686
*897 FILLER_0_0_695
*898 FILLER_0_0_711
*899 FILLER_0_0_713
*900 FILLER_0_0_716
*901 FILLER_0_0_724
*902 FILLER_0_0_726
*903 FILLER_0_0_729
*904 FILLER_0_0_745
*905 FILLER_0_0_747
*906 FILLER_0_0_750
*907 FILLER_0_0_758
*908 FILLER_0_0_761
*909 FILLER_0_0_777
*910 FILLER_0_0_779
*911 FILLER_0_0_790
*912 FILLER_0_0_806
*913 FILLER_0_0_814
*914 FILLER_0_0_818
*915 FILLER_0_0_822
*916 FILLER_0_0_852
*917 FILLER_0_0_856
*918 FILLER_0_0_886
*919 FILLER_0_0_890
*920 FILLER_0_0_920
*921 FILLER_0_0_924
*922 FILLER_0_0_954
*923 FILLER_0_0_958
*924 FILLER_0_0_985
*925 FILLER_0_0_988
*926 FILLER_0_0_990
*927 FILLER_0_10_101
*928 FILLER_0_10_1011
*929 FILLER_0_10_1017
*930 FILLER_0_10_107
*931 FILLER_0_10_1081
*932 FILLER_0_10_1087
*933 FILLER_0_10_1151
*934 FILLER_0_10_1157
*935 FILLER_0_10_1221
*936 FILLER_0_10_1227
*937 FILLER_0_10_1291
*938 FILLER_0_10_1297
*939 FILLER_0_10_1361
*940 FILLER_0_10_1367
*941 FILLER_0_10_1431
*942 FILLER_0_10_1437
*943 FILLER_0_10_1501
*944 FILLER_0_10_1507
*945 FILLER_0_10_1571
*946 FILLER_0_10_1577
*947 FILLER_0_10_1641
*948 FILLER_0_10_1647
*949 FILLER_0_10_171
*950 FILLER_0_10_1711
*951 FILLER_0_10_1717
*952 FILLER_0_10_177
*953 FILLER_0_10_1781
*954 FILLER_0_10_1787
*955 FILLER_0_10_1851
*956 FILLER_0_10_1857
*957 FILLER_0_10_1921
*958 FILLER_0_10_1927
*959 FILLER_0_10_1991
*960 FILLER_0_10_1997
*961 FILLER_0_10_2
*962 FILLER_0_10_2061
*963 FILLER_0_10_2067
*964 FILLER_0_10_2131
*965 FILLER_0_10_2137
*966 FILLER_0_10_2201
*967 FILLER_0_10_2207
*968 FILLER_0_10_2271
*969 FILLER_0_10_2277
*970 FILLER_0_10_2341
*971 FILLER_0_10_2347
*972 FILLER_0_10_241
*973 FILLER_0_10_2411
*974 FILLER_0_10_2417
*975 FILLER_0_10_247
*976 FILLER_0_10_2481
*977 FILLER_0_10_2487
*978 FILLER_0_10_2551
*979 FILLER_0_10_2557
*980 FILLER_0_10_2621
*981 FILLER_0_10_2627
*982 FILLER_0_10_2643
*983 FILLER_0_10_2651
*984 FILLER_0_10_311
*985 FILLER_0_10_317
*986 FILLER_0_10_34
*987 FILLER_0_10_37
*988 FILLER_0_10_381
*989 FILLER_0_10_387
*990 FILLER_0_10_451
*991 FILLER_0_10_457
*992 FILLER_0_10_521
*993 FILLER_0_10_527
*994 FILLER_0_10_591
*995 FILLER_0_10_597
*996 FILLER_0_10_661
*997 FILLER_0_10_667
*998 FILLER_0_10_731
*999 FILLER_0_10_737
*1000 FILLER_0_10_801
*1001 FILLER_0_10_807
*1002 FILLER_0_10_871
*1003 FILLER_0_10_877
*1004 FILLER_0_10_941
*1005 FILLER_0_10_947
*1006 FILLER_0_11_1046
*1007 FILLER_0_11_1052
*1008 FILLER_0_11_1116
*1009 FILLER_0_11_1122
*1010 FILLER_0_11_1186
*1011 FILLER_0_11_1192
*1012 FILLER_0_11_1256
*1013 FILLER_0_11_1262
*1014 FILLER_0_11_1326
*1015 FILLER_0_11_1332
*1016 FILLER_0_11_136
*1017 FILLER_0_11_1396
*1018 FILLER_0_11_1402
*1019 FILLER_0_11_142
*1020 FILLER_0_11_1466
*1021 FILLER_0_11_1472
*1022 FILLER_0_11_1536
*1023 FILLER_0_11_1542
*1024 FILLER_0_11_1606
*1025 FILLER_0_11_1612
*1026 FILLER_0_11_1676
*1027 FILLER_0_11_1682
*1028 FILLER_0_11_1746
*1029 FILLER_0_11_1752
*1030 FILLER_0_11_1816
*1031 FILLER_0_11_1822
*1032 FILLER_0_11_1886
*1033 FILLER_0_11_1892
*1034 FILLER_0_11_1956
*1035 FILLER_0_11_1962
*1036 FILLER_0_11_2
*1037 FILLER_0_11_2026
*1038 FILLER_0_11_2032
*1039 FILLER_0_11_206
*1040 FILLER_0_11_2096
*1041 FILLER_0_11_2102
*1042 FILLER_0_11_212
*1043 FILLER_0_11_2166
*1044 FILLER_0_11_2172
*1045 FILLER_0_11_2236
*1046 FILLER_0_11_2242
*1047 FILLER_0_11_2306
*1048 FILLER_0_11_2312
*1049 FILLER_0_11_2376
*1050 FILLER_0_11_2382
*1051 FILLER_0_11_2446
*1052 FILLER_0_11_2452
*1053 FILLER_0_11_2516
*1054 FILLER_0_11_2522
*1055 FILLER_0_11_2586
*1056 FILLER_0_11_2592
*1057 FILLER_0_11_2624
*1058 FILLER_0_11_2640
*1059 FILLER_0_11_2648
*1060 FILLER_0_11_276
*1061 FILLER_0_11_282
*1062 FILLER_0_11_346
*1063 FILLER_0_11_352
*1064 FILLER_0_11_416
*1065 FILLER_0_11_422
*1066 FILLER_0_11_486
*1067 FILLER_0_11_492
*1068 FILLER_0_11_556
*1069 FILLER_0_11_562
*1070 FILLER_0_11_626
*1071 FILLER_0_11_632
*1072 FILLER_0_11_66
*1073 FILLER_0_11_696
*1074 FILLER_0_11_702
*1075 FILLER_0_11_72
*1076 FILLER_0_11_766
*1077 FILLER_0_11_772
*1078 FILLER_0_11_836
*1079 FILLER_0_11_842
*1080 FILLER_0_11_906
*1081 FILLER_0_11_912
*1082 FILLER_0_11_976
*1083 FILLER_0_11_982
*1084 FILLER_0_12_101
*1085 FILLER_0_12_1011
*1086 FILLER_0_12_1017
*1087 FILLER_0_12_107
*1088 FILLER_0_12_1081
*1089 FILLER_0_12_1087
*1090 FILLER_0_12_1151
*1091 FILLER_0_12_1157
*1092 FILLER_0_12_1221
*1093 FILLER_0_12_1227
*1094 FILLER_0_12_1291
*1095 FILLER_0_12_1297
*1096 FILLER_0_12_1361
*1097 FILLER_0_12_1367
*1098 FILLER_0_12_1431
*1099 FILLER_0_12_1437
*1100 FILLER_0_12_1501
*1101 FILLER_0_12_1507
*1102 FILLER_0_12_1571
*1103 FILLER_0_12_1577
*1104 FILLER_0_12_1641
*1105 FILLER_0_12_1647
*1106 FILLER_0_12_171
*1107 FILLER_0_12_1711
*1108 FILLER_0_12_1717
*1109 FILLER_0_12_177
*1110 FILLER_0_12_1781
*1111 FILLER_0_12_1787
*1112 FILLER_0_12_1851
*1113 FILLER_0_12_1857
*1114 FILLER_0_12_1921
*1115 FILLER_0_12_1927
*1116 FILLER_0_12_1991
*1117 FILLER_0_12_1997
*1118 FILLER_0_12_2
*1119 FILLER_0_12_2061
*1120 FILLER_0_12_2067
*1121 FILLER_0_12_2131
*1122 FILLER_0_12_2137
*1123 FILLER_0_12_2201
*1124 FILLER_0_12_2207
*1125 FILLER_0_12_2271
*1126 FILLER_0_12_2277
*1127 FILLER_0_12_2341
*1128 FILLER_0_12_2347
*1129 FILLER_0_12_241
*1130 FILLER_0_12_2411
*1131 FILLER_0_12_2417
*1132 FILLER_0_12_247
*1133 FILLER_0_12_2481
*1134 FILLER_0_12_2487
*1135 FILLER_0_12_2551
*1136 FILLER_0_12_2557
*1137 FILLER_0_12_2621
*1138 FILLER_0_12_2627
*1139 FILLER_0_12_2643
*1140 FILLER_0_12_2651
*1141 FILLER_0_12_311
*1142 FILLER_0_12_317
*1143 FILLER_0_12_34
*1144 FILLER_0_12_37
*1145 FILLER_0_12_381
*1146 FILLER_0_12_387
*1147 FILLER_0_12_451
*1148 FILLER_0_12_457
*1149 FILLER_0_12_521
*1150 FILLER_0_12_527
*1151 FILLER_0_12_591
*1152 FILLER_0_12_597
*1153 FILLER_0_12_661
*1154 FILLER_0_12_667
*1155 FILLER_0_12_731
*1156 FILLER_0_12_737
*1157 FILLER_0_12_801
*1158 FILLER_0_12_807
*1159 FILLER_0_12_871
*1160 FILLER_0_12_877
*1161 FILLER_0_12_941
*1162 FILLER_0_12_947
*1163 FILLER_0_13_1046
*1164 FILLER_0_13_1052
*1165 FILLER_0_13_1116
*1166 FILLER_0_13_1122
*1167 FILLER_0_13_1186
*1168 FILLER_0_13_1192
*1169 FILLER_0_13_1256
*1170 FILLER_0_13_1262
*1171 FILLER_0_13_1326
*1172 FILLER_0_13_1332
*1173 FILLER_0_13_136
*1174 FILLER_0_13_1396
*1175 FILLER_0_13_1402
*1176 FILLER_0_13_142
*1177 FILLER_0_13_1466
*1178 FILLER_0_13_1472
*1179 FILLER_0_13_1536
*1180 FILLER_0_13_1542
*1181 FILLER_0_13_1606
*1182 FILLER_0_13_1612
*1183 FILLER_0_13_1676
*1184 FILLER_0_13_1682
*1185 FILLER_0_13_1746
*1186 FILLER_0_13_1752
*1187 FILLER_0_13_1816
*1188 FILLER_0_13_1822
*1189 FILLER_0_13_1886
*1190 FILLER_0_13_1892
*1191 FILLER_0_13_1956
*1192 FILLER_0_13_1962
*1193 FILLER_0_13_2
*1194 FILLER_0_13_2026
*1195 FILLER_0_13_2032
*1196 FILLER_0_13_206
*1197 FILLER_0_13_2096
*1198 FILLER_0_13_2102
*1199 FILLER_0_13_212
*1200 FILLER_0_13_2166
*1201 FILLER_0_13_2172
*1202 FILLER_0_13_2236
*1203 FILLER_0_13_2242
*1204 FILLER_0_13_2306
*1205 FILLER_0_13_2312
*1206 FILLER_0_13_2376
*1207 FILLER_0_13_2382
*1208 FILLER_0_13_2446
*1209 FILLER_0_13_2452
*1210 FILLER_0_13_2516
*1211 FILLER_0_13_2522
*1212 FILLER_0_13_2586
*1213 FILLER_0_13_2592
*1214 FILLER_0_13_2624
*1215 FILLER_0_13_2640
*1216 FILLER_0_13_2648
*1217 FILLER_0_13_276
*1218 FILLER_0_13_282
*1219 FILLER_0_13_346
*1220 FILLER_0_13_352
*1221 FILLER_0_13_416
*1222 FILLER_0_13_422
*1223 FILLER_0_13_486
*1224 FILLER_0_13_492
*1225 FILLER_0_13_556
*1226 FILLER_0_13_562
*1227 FILLER_0_13_626
*1228 FILLER_0_13_632
*1229 FILLER_0_13_66
*1230 FILLER_0_13_696
*1231 FILLER_0_13_702
*1232 FILLER_0_13_72
*1233 FILLER_0_13_766
*1234 FILLER_0_13_772
*1235 FILLER_0_13_836
*1236 FILLER_0_13_842
*1237 FILLER_0_13_906
*1238 FILLER_0_13_912
*1239 FILLER_0_13_976
*1240 FILLER_0_13_982
*1241 FILLER_0_14_101
*1242 FILLER_0_14_1011
*1243 FILLER_0_14_1017
*1244 FILLER_0_14_107
*1245 FILLER_0_14_1081
*1246 FILLER_0_14_1087
*1247 FILLER_0_14_1151
*1248 FILLER_0_14_1157
*1249 FILLER_0_14_1221
*1250 FILLER_0_14_1227
*1251 FILLER_0_14_1291
*1252 FILLER_0_14_1297
*1253 FILLER_0_14_1361
*1254 FILLER_0_14_1367
*1255 FILLER_0_14_1431
*1256 FILLER_0_14_1437
*1257 FILLER_0_14_1501
*1258 FILLER_0_14_1507
*1259 FILLER_0_14_1571
*1260 FILLER_0_14_1577
*1261 FILLER_0_14_1641
*1262 FILLER_0_14_1647
*1263 FILLER_0_14_171
*1264 FILLER_0_14_1711
*1265 FILLER_0_14_1717
*1266 FILLER_0_14_177
*1267 FILLER_0_14_1781
*1268 FILLER_0_14_1787
*1269 FILLER_0_14_1851
*1270 FILLER_0_14_1857
*1271 FILLER_0_14_1921
*1272 FILLER_0_14_1927
*1273 FILLER_0_14_1991
*1274 FILLER_0_14_1997
*1275 FILLER_0_14_2
*1276 FILLER_0_14_2061
*1277 FILLER_0_14_2067
*1278 FILLER_0_14_2131
*1279 FILLER_0_14_2137
*1280 FILLER_0_14_2201
*1281 FILLER_0_14_2207
*1282 FILLER_0_14_2271
*1283 FILLER_0_14_2277
*1284 FILLER_0_14_2341
*1285 FILLER_0_14_2347
*1286 FILLER_0_14_241
*1287 FILLER_0_14_2411
*1288 FILLER_0_14_2417
*1289 FILLER_0_14_247
*1290 FILLER_0_14_2481
*1291 FILLER_0_14_2487
*1292 FILLER_0_14_2551
*1293 FILLER_0_14_2557
*1294 FILLER_0_14_2621
*1295 FILLER_0_14_2627
*1296 FILLER_0_14_2643
*1297 FILLER_0_14_2651
*1298 FILLER_0_14_311
*1299 FILLER_0_14_317
*1300 FILLER_0_14_34
*1301 FILLER_0_14_37
*1302 FILLER_0_14_381
*1303 FILLER_0_14_387
*1304 FILLER_0_14_451
*1305 FILLER_0_14_457
*1306 FILLER_0_14_521
*1307 FILLER_0_14_527
*1308 FILLER_0_14_591
*1309 FILLER_0_14_597
*1310 FILLER_0_14_661
*1311 FILLER_0_14_667
*1312 FILLER_0_14_731
*1313 FILLER_0_14_737
*1314 FILLER_0_14_801
*1315 FILLER_0_14_807
*1316 FILLER_0_14_871
*1317 FILLER_0_14_877
*1318 FILLER_0_14_941
*1319 FILLER_0_14_947
*1320 FILLER_0_15_1046
*1321 FILLER_0_15_1052
*1322 FILLER_0_15_1116
*1323 FILLER_0_15_1122
*1324 FILLER_0_15_1186
*1325 FILLER_0_15_1192
*1326 FILLER_0_15_1256
*1327 FILLER_0_15_1262
*1328 FILLER_0_15_1326
*1329 FILLER_0_15_1332
*1330 FILLER_0_15_136
*1331 FILLER_0_15_1396
*1332 FILLER_0_15_1402
*1333 FILLER_0_15_142
*1334 FILLER_0_15_1466
*1335 FILLER_0_15_1472
*1336 FILLER_0_15_1536
*1337 FILLER_0_15_1542
*1338 FILLER_0_15_1606
*1339 FILLER_0_15_1612
*1340 FILLER_0_15_1676
*1341 FILLER_0_15_1682
*1342 FILLER_0_15_1746
*1343 FILLER_0_15_1752
*1344 FILLER_0_15_1816
*1345 FILLER_0_15_1822
*1346 FILLER_0_15_1886
*1347 FILLER_0_15_1892
*1348 FILLER_0_15_1956
*1349 FILLER_0_15_1962
*1350 FILLER_0_15_2
*1351 FILLER_0_15_2026
*1352 FILLER_0_15_2032
*1353 FILLER_0_15_206
*1354 FILLER_0_15_2096
*1355 FILLER_0_15_2102
*1356 FILLER_0_15_212
*1357 FILLER_0_15_2166
*1358 FILLER_0_15_2172
*1359 FILLER_0_15_2236
*1360 FILLER_0_15_2242
*1361 FILLER_0_15_2306
*1362 FILLER_0_15_2312
*1363 FILLER_0_15_2376
*1364 FILLER_0_15_2382
*1365 FILLER_0_15_2446
*1366 FILLER_0_15_2452
*1367 FILLER_0_15_2516
*1368 FILLER_0_15_2522
*1369 FILLER_0_15_2586
*1370 FILLER_0_15_2592
*1371 FILLER_0_15_2624
*1372 FILLER_0_15_2640
*1373 FILLER_0_15_2648
*1374 FILLER_0_15_276
*1375 FILLER_0_15_282
*1376 FILLER_0_15_346
*1377 FILLER_0_15_352
*1378 FILLER_0_15_416
*1379 FILLER_0_15_422
*1380 FILLER_0_15_486
*1381 FILLER_0_15_492
*1382 FILLER_0_15_556
*1383 FILLER_0_15_562
*1384 FILLER_0_15_626
*1385 FILLER_0_15_632
*1386 FILLER_0_15_66
*1387 FILLER_0_15_696
*1388 FILLER_0_15_702
*1389 FILLER_0_15_72
*1390 FILLER_0_15_766
*1391 FILLER_0_15_772
*1392 FILLER_0_15_836
*1393 FILLER_0_15_842
*1394 FILLER_0_15_906
*1395 FILLER_0_15_912
*1396 FILLER_0_15_976
*1397 FILLER_0_15_982
*1398 FILLER_0_16_101
*1399 FILLER_0_16_1011
*1400 FILLER_0_16_1017
*1401 FILLER_0_16_107
*1402 FILLER_0_16_1081
*1403 FILLER_0_16_1087
*1404 FILLER_0_16_1151
*1405 FILLER_0_16_1157
*1406 FILLER_0_16_1221
*1407 FILLER_0_16_1227
*1408 FILLER_0_16_1291
*1409 FILLER_0_16_1297
*1410 FILLER_0_16_1361
*1411 FILLER_0_16_1367
*1412 FILLER_0_16_1431
*1413 FILLER_0_16_1437
*1414 FILLER_0_16_1501
*1415 FILLER_0_16_1507
*1416 FILLER_0_16_1571
*1417 FILLER_0_16_1577
*1418 FILLER_0_16_1641
*1419 FILLER_0_16_1647
*1420 FILLER_0_16_171
*1421 FILLER_0_16_1711
*1422 FILLER_0_16_1717
*1423 FILLER_0_16_177
*1424 FILLER_0_16_1781
*1425 FILLER_0_16_1787
*1426 FILLER_0_16_1851
*1427 FILLER_0_16_1857
*1428 FILLER_0_16_1921
*1429 FILLER_0_16_1927
*1430 FILLER_0_16_1991
*1431 FILLER_0_16_1997
*1432 FILLER_0_16_2
*1433 FILLER_0_16_2061
*1434 FILLER_0_16_2067
*1435 FILLER_0_16_2131
*1436 FILLER_0_16_2137
*1437 FILLER_0_16_2201
*1438 FILLER_0_16_2207
*1439 FILLER_0_16_2271
*1440 FILLER_0_16_2277
*1441 FILLER_0_16_2341
*1442 FILLER_0_16_2347
*1443 FILLER_0_16_241
*1444 FILLER_0_16_2411
*1445 FILLER_0_16_2417
*1446 FILLER_0_16_247
*1447 FILLER_0_16_2481
*1448 FILLER_0_16_2487
*1449 FILLER_0_16_2551
*1450 FILLER_0_16_2557
*1451 FILLER_0_16_2621
*1452 FILLER_0_16_2627
*1453 FILLER_0_16_2643
*1454 FILLER_0_16_2651
*1455 FILLER_0_16_311
*1456 FILLER_0_16_317
*1457 FILLER_0_16_34
*1458 FILLER_0_16_37
*1459 FILLER_0_16_381
*1460 FILLER_0_16_387
*1461 FILLER_0_16_451
*1462 FILLER_0_16_457
*1463 FILLER_0_16_521
*1464 FILLER_0_16_527
*1465 FILLER_0_16_591
*1466 FILLER_0_16_597
*1467 FILLER_0_16_661
*1468 FILLER_0_16_667
*1469 FILLER_0_16_731
*1470 FILLER_0_16_737
*1471 FILLER_0_16_801
*1472 FILLER_0_16_807
*1473 FILLER_0_16_871
*1474 FILLER_0_16_877
*1475 FILLER_0_16_941
*1476 FILLER_0_16_947
*1477 FILLER_0_17_1046
*1478 FILLER_0_17_1052
*1479 FILLER_0_17_1116
*1480 FILLER_0_17_1122
*1481 FILLER_0_17_1186
*1482 FILLER_0_17_1192
*1483 FILLER_0_17_1256
*1484 FILLER_0_17_1262
*1485 FILLER_0_17_1326
*1486 FILLER_0_17_1332
*1487 FILLER_0_17_136
*1488 FILLER_0_17_1396
*1489 FILLER_0_17_1402
*1490 FILLER_0_17_142
*1491 FILLER_0_17_1466
*1492 FILLER_0_17_1472
*1493 FILLER_0_17_1536
*1494 FILLER_0_17_1542
*1495 FILLER_0_17_1606
*1496 FILLER_0_17_1612
*1497 FILLER_0_17_1676
*1498 FILLER_0_17_1682
*1499 FILLER_0_17_1746
*1500 FILLER_0_17_1752
*1501 FILLER_0_17_1816
*1502 FILLER_0_17_1822
*1503 FILLER_0_17_1886
*1504 FILLER_0_17_1892
*1505 FILLER_0_17_1956
*1506 FILLER_0_17_1962
*1507 FILLER_0_17_2
*1508 FILLER_0_17_2026
*1509 FILLER_0_17_2032
*1510 FILLER_0_17_206
*1511 FILLER_0_17_2096
*1512 FILLER_0_17_2102
*1513 FILLER_0_17_212
*1514 FILLER_0_17_2166
*1515 FILLER_0_17_2172
*1516 FILLER_0_17_2236
*1517 FILLER_0_17_2242
*1518 FILLER_0_17_2306
*1519 FILLER_0_17_2312
*1520 FILLER_0_17_2376
*1521 FILLER_0_17_2382
*1522 FILLER_0_17_2446
*1523 FILLER_0_17_2452
*1524 FILLER_0_17_2516