*SPEF "ieee 1481-1999"
*DESIGN "ram_controller"
*DATE "11:11:11 Fri 11 11, 1111"
*VENDOR "OpenRCX"
*PROGRAM "Parallel Extraction"
*VERSION "1.0"
*DESIGN_FLOW "NAME_SCOPE LOCAL" "PIN_CAP NONE"
*DIVIDER /
*DELIMITER :
*BUS_DELIMITER []
*T_UNIT 1 NS
*C_UNIT 1 PF
*R_UNIT 1 OHM
*L_UNIT 1 HENRY

*NAME_MAP
*1 A_all[0]
*2 A_all[1]
*3 A_all[2]
*4 A_all[3]
*5 A_all[4]
*6 A_all[5]
*7 A_all[6]
*8 A_all[7]
*9 A_all[8]
*10 CEN_all
*11 D_all[0]
*12 D_all[1]
*13 D_all[2]
*14 D_all[3]
*15 D_all[4]
*16 D_all[5]
*17 D_all[6]
*18 D_all[7]
*19 GWEN_0
*20 GWEN_1
*21 GWEN_2
*22 GWEN_3
*23 GWEN_4
*24 GWEN_5
*25 GWEN_6
*26 GWEN_7
*27 Q0[0]
*28 Q0[1]
*29 Q0[2]
*30 Q0[3]
*31 Q0[4]
*32 Q0[5]
*33 Q0[6]
*34 Q0[7]
*35 Q1[0]
*36 Q1[1]
*37 Q1[2]
*38 Q1[3]
*39 Q1[4]
*40 Q1[5]
*41 Q1[6]
*42 Q1[7]
*43 Q2[0]
*44 Q2[1]
*45 Q2[2]
*46 Q2[3]
*47 Q2[4]
*48 Q2[5]
*49 Q2[6]
*50 Q2[7]
*51 Q3[0]
*52 Q3[1]
*53 Q3[2]
*54 Q3[3]
*55 Q3[4]
*56 Q3[5]
*57 Q3[6]
*58 Q3[7]
*59 Q4[0]
*60 Q4[1]
*61 Q4[2]
*62 Q4[3]
*63 Q4[4]
*64 Q4[5]
*65 Q4[6]
*66 Q4[7]
*67 Q5[0]
*68 Q5[1]
*69 Q5[2]
*70 Q5[3]
*71 Q5[4]
*72 Q5[5]
*73 Q5[6]
*74 Q5[7]
*75 Q6[0]
*76 Q6[1]
*77 Q6[2]
*78 Q6[3]
*79 Q6[4]
*80 Q6[5]
*81 Q6[6]
*82 Q6[7]
*83 Q7[0]
*84 Q7[1]
*85 Q7[2]
*86 Q7[3]
*87 Q7[4]
*88 Q7[5]
*89 Q7[6]
*90 Q7[7]
*91 net126
*92 net127
*93 net128
*94 net129
*95 net130
*96 net131
*97 net132
*98 net133
*99 WEb_ram
*100 bus_in[0]
*101 bus_in[1]
*102 bus_in[2]
*103 bus_in[3]
*104 bus_in[4]
*105 bus_in[5]
*106 bus_in[6]
*107 bus_in[7]
*108 bus_out[0]
*109 bus_out[1]
*110 bus_out[2]
*111 bus_out[3]
*112 bus_out[4]
*113 bus_out[5]
*114 bus_out[6]
*115 bus_out[7]
*116 ram_enabled
*117 requested_addr[0]
*118 requested_addr[10]
*119 requested_addr[11]
*120 requested_addr[12]
*121 requested_addr[13]
*122 requested_addr[14]
*123 requested_addr[15]
*124 requested_addr[1]
*125 requested_addr[2]
*126 requested_addr[3]
*127 requested_addr[4]
*128 requested_addr[5]
*129 requested_addr[6]
*130 requested_addr[7]
*131 requested_addr[8]
*132 requested_addr[9]
*133 rst
*136 wb_clk_i
*137 _000_
*138 _001_
*139 _002_
*140 _003_
*141 _004_
*142 _005_
*143 _006_
*144 _007_
*145 _008_
*146 _009_
*147 _010_
*148 _011_
*149 _012_
*150 _013_
*151 _014_
*152 _015_
*153 _016_
*154 _017_
*155 _018_
*156 _019_
*157 _020_
*158 _021_
*159 _022_
*160 _023_
*161 _024_
*162 _025_
*163 _026_
*164 _027_
*165 _028_
*166 _029_
*167 _030_
*168 _031_
*169 _032_
*170 _033_
*171 _034_
*172 _035_
*173 _036_
*174 _037_
*175 _038_
*176 _039_
*177 _040_
*178 _041_
*179 _042_
*180 _043_
*181 _044_
*182 _045_
*183 _046_
*184 _047_
*185 _048_
*186 _049_
*187 _050_
*188 _051_
*189 _052_
*190 _053_
*191 _054_
*192 _055_
*193 _056_
*194 _057_
*195 _058_
*196 _059_
*197 _060_
*198 _061_
*199 _062_
*200 _063_
*201 _064_
*202 _065_
*203 _066_
*204 _067_
*205 _068_
*206 _069_
*207 _070_
*208 _071_
*209 _072_
*210 _073_
*211 _074_
*212 _075_
*213 _076_
*214 _077_
*215 _078_
*216 _079_
*217 _080_
*218 _081_
*219 _082_
*220 _083_
*221 _084_
*222 _085_
*223 _086_
*224 _087_
*225 _088_
*226 _089_
*227 _090_
*228 _091_
*229 _092_
*230 _093_
*231 _094_
*232 _095_
*233 _096_
*234 _097_
*235 _098_
*236 _099_
*237 _100_
*238 _101_
*239 _102_
*240 _103_
*241 _104_
*242 _105_
*243 clknet_0_wb_clk_i
*244 clknet_1_0__leaf_wb_clk_i
*245 clknet_1_1__leaf_wb_clk_i
*246 net1
*247 net10
*248 net100
*249 net101
*250 net102
*251 net103
*252 net104
*253 net105
*254 net106
*255 net107
*256 net108
*257 net109
*258 net11
*259 net110
*260 net111
*261 net112
*262 net113
*263 net114
*264 net115
*265 net116
*266 net117
*267 net118
*268 net119
*269 net12
*270 net120
*271 net121
*272 net122
*273 net123
*274 net124
*275 net125
*276 net13
*277 net14
*278 net15
*279 net16
*280 net17
*281 net18
*282 net19
*283 net2
*284 net20
*285 net21
*286 net22
*287 net23
*288 net24
*289 net25
*290 net26
*291 net27
*292 net28
*293 net29
*294 net3
*295 net30
*296 net31
*297 net32
*298 net33
*299 net34
*300 net35
*301 net36
*302 net37
*303 net38
*304 net39
*305 net4
*306 net40
*307 net41
*308 net42
*309 net43
*310 net44
*311 net45
*312 net46
*313 net47
*314 net48
*315 net49
*316 net5
*317 net50
*318 net51
*319 net52
*320 net53
*321 net54
*322 net55
*323 net56
*324 net57
*325 net58
*326 net59
*327 net6
*328 net60
*329 net61
*330 net62
*331 net63
*332 net64
*333 net65
*334 net66
*335 net67
*336 net68
*337 net69
*338 net7
*339 net70
*340 net71
*341 net72
*342 net73
*343 net74
*344 net75
*345 net76
*346 net77
*347 net78
*348 net79
*349 net8
*350 net80
*351 net81
*352 net82
*353 net83
*354 net84
*355 net85
*356 net86
*357 net87
*358 net88
*359 net89
*360 net9
*361 net90
*362 net91
*363 net92
*364 net93
*365 net94
*366 net95
*367 net96
*368 net97
*369 net98
*370 net99
*371 requested_addr_latch\[0\]
*372 requested_addr_latch\[10\]
*373 requested_addr_latch\[11\]
*374 requested_addr_latch\[12\]
*375 requested_addr_latch\[13\]
*376 requested_addr_latch\[14\]
*377 requested_addr_latch\[15\]
*378 requested_addr_latch\[1\]
*379 requested_addr_latch\[2\]
*380 requested_addr_latch\[3\]
*381 requested_addr_latch\[4\]
*382 requested_addr_latch\[5\]
*383 requested_addr_latch\[6\]
*384 requested_addr_latch\[7\]
*385 requested_addr_latch\[8\]
*386 requested_addr_latch\[9\]
*387 ANTENNA__108__A4
*388 ANTENNA__110__B2
*389 ANTENNA__111__I
*390 ANTENNA__112__B2
*391 ANTENNA__112__C1
*392 ANTENNA__113__A4
*393 ANTENNA__115__A2
*394 ANTENNA__116__A4
*395 ANTENNA__118__B2
*396 ANTENNA__119__I
*397 ANTENNA__120__B2
*398 ANTENNA__120__C1
*399 ANTENNA__121__A4
*400 ANTENNA__123__A2
*401 ANTENNA__124__A4
*402 ANTENNA__126__B2
*403 ANTENNA__127__I
*404 ANTENNA__128__B2
*405 ANTENNA__128__C1
*406 ANTENNA__129__A4
*407 ANTENNA__131__A2
*408 ANTENNA__132__A4
*409 ANTENNA__134__B2
*410 ANTENNA__136__B2
*411 ANTENNA__136__C1
*412 ANTENNA__137__A4
*413 ANTENNA__138__A3
*414 ANTENNA__139__A2
*415 ANTENNA__139__B
*416 ANTENNA__140__A4
*417 ANTENNA__142__A1
*418 ANTENNA__142__A2
*419 ANTENNA__142__B2
*420 ANTENNA__144__A1
*421 ANTENNA__145__A1
*422 ANTENNA__146__I
*423 ANTENNA__147__I
*424 ANTENNA__149__I
*425 ANTENNA__151__I
*426 ANTENNA__154__I
*427 ANTENNA__159__I
*428 ANTENNA__162__I
*429 ANTENNA__163__A4
*430 ANTENNA__167__A1
*431 ANTENNA__167__A2
*432 ANTENNA__168__I
*433 ANTENNA__169__A2
*434 ANTENNA__172__I
*435 ANTENNA__173__A2
*436 ANTENNA__180__A4
*437 ANTENNA__181__A2
*438 ANTENNA__184__I
*439 ANTENNA__185__B2
*440 ANTENNA__185__C1
*441 ANTENNA__188__A4
*442 ANTENNA__192__A4
*443 ANTENNA__195__I
*444 ANTENNA__196__B2
*445 ANTENNA__196__C1
*446 ANTENNA__197__A4
*447 ANTENNA__200__A4
*448 ANTENNA__203__I
*449 ANTENNA__204__B2
*450 ANTENNA__204__C1
*451 ANTENNA__206__A4
*452 ANTENNA__210__A2
*453 ANTENNA__212__A4
*454 ANTENNA__214__B2
*455 ANTENNA__215__I
*456 ANTENNA__216__I
*457 ANTENNA__220__B2
*458 ANTENNA__220__C1
*459 ANTENNA__223__A4
*460 ANTENNA__224__I
*461 ANTENNA__226__I
*462 ANTENNA__227__A2
*463 ANTENNA__228__CLK
*464 ANTENNA__228__D
*465 ANTENNA__229__CLK
*466 ANTENNA__229__D
*467 ANTENNA__230__CLK
*468 ANTENNA__230__D
*469 ANTENNA__231__CLK
*470 ANTENNA__231__D
*471 ANTENNA__232__CLK
*472 ANTENNA__232__D
*473 ANTENNA__233__CLK
*474 ANTENNA__233__D
*475 ANTENNA__234__CLK
*476 ANTENNA__234__D
*477 ANTENNA__235__CLK
*478 ANTENNA__235__D
*479 ANTENNA__236__CLK
*480 ANTENNA__236__D
*481 ANTENNA__237__CLK
*482 ANTENNA__237__D
*483 ANTENNA__238__CLK
*484 ANTENNA__238__D
*485 ANTENNA__239__CLK
*486 ANTENNA__239__D
*487 ANTENNA__240__CLK
*488 ANTENNA__241__CLK
*489 ANTENNA__242__CLK
*490 ANTENNA__243__CLK
*491 ANTENNA__252__I
*492 ANTENNA__253__I
*493 ANTENNA__254__I
*494 ANTENNA__255__I
*495 ANTENNA__256__I
*496 ANTENNA__257__I
*497 ANTENNA__258__I
*498 ANTENNA__259__I
*499 ANTENNA__260__I
*500 ANTENNA__261__I
*501 ANTENNA__262__I
*502 ANTENNA__263__I
*503 ANTENNA__264__I
*504 ANTENNA__265__I
*505 ANTENNA__266__I
*506 ANTENNA__267__I
*507 ANTENNA__268__I
*508 ANTENNA__269__I
*509 ANTENNA_clkbuf_0_wb_clk_i_I
*510 ANTENNA_clkbuf_1_0__f_wb_clk_i_I
*511 ANTENNA_clkbuf_1_1__f_wb_clk_i_I
*512 ANTENNA_input10_I
*513 ANTENNA_input11_I
*514 ANTENNA_input12_I
*515 ANTENNA_input13_I
*516 ANTENNA_input14_I
*517 ANTENNA_input15_I
*518 ANTENNA_input16_I
*519 ANTENNA_input17_I
*520 ANTENNA_input18_I
*521 ANTENNA_input19_I
*522 ANTENNA_input1_I
*523 ANTENNA_input20_I
*524 ANTENNA_input21_I
*525 ANTENNA_input22_I
*526 ANTENNA_input23_I
*527 ANTENNA_input24_I
*528 ANTENNA_input25_I
*529 ANTENNA_input26_I
*530 ANTENNA_input27_I
*531 ANTENNA_input28_I
*532 ANTENNA_input29_I
*533 ANTENNA_input2_I
*534 ANTENNA_input30_I
*535 ANTENNA_input31_I
*536 ANTENNA_input32_I
*537 ANTENNA_input33_I
*538 ANTENNA_input34_I
*539 ANTENNA_input35_I
*540 ANTENNA_input36_I
*541 ANTENNA_input37_I
*542 ANTENNA_input38_I
*543 ANTENNA_input39_I
*544 ANTENNA_input3_I
*545 ANTENNA_input40_I
*546 ANTENNA_input41_I
*547 ANTENNA_input42_I
*548 ANTENNA_input43_I
*549 ANTENNA_input44_I
*550 ANTENNA_input45_I
*551 ANTENNA_input46_I
*552 ANTENNA_input47_I
*553 ANTENNA_input48_I
*554 ANTENNA_input49_I
*555 ANTENNA_input4_I
*556 ANTENNA_input50_I
*557 ANTENNA_input51_I
*558 ANTENNA_input52_I
*559 ANTENNA_input53_I
*560 ANTENNA_input54_I
*561 ANTENNA_input55_I
*562 ANTENNA_input56_I
*563 ANTENNA_input57_I
*564 ANTENNA_input58_I
*565 ANTENNA_input59_I
*566 ANTENNA_input5_I
*567 ANTENNA_input60_I
*568 ANTENNA_input61_I
*569 ANTENNA_input62_I
*570 ANTENNA_input63_I
*571 ANTENNA_input64_I
*572 ANTENNA_input65_I
*573 ANTENNA_input66_I
*574 ANTENNA_input67_I
*575 ANTENNA_input68_I
*576 ANTENNA_input69_I
*577 ANTENNA_input6_I
*578 ANTENNA_input70_I
*579 ANTENNA_input71_I
*580 ANTENNA_input72_I
*581 ANTENNA_input73_I
*582 ANTENNA_input74_I
*583 ANTENNA_input75_I
*584 ANTENNA_input76_I
*585 ANTENNA_input77_I
*586 ANTENNA_input78_I
*587 ANTENNA_input79_I
*588 ANTENNA_input7_I
*589 ANTENNA_input80_I
*590 ANTENNA_input81_I
*591 ANTENNA_input82_I
*592 ANTENNA_input83_I
*593 ANTENNA_input84_I
*594 ANTENNA_input85_I
*595 ANTENNA_input86_I
*596 ANTENNA_input87_I
*597 ANTENNA_input88_I
*598 ANTENNA_input89_I
*599 ANTENNA_input8_I
*600 ANTENNA_input90_I
*601 ANTENNA_input91_I
*602 ANTENNA_input9_I
*603 ANTENNA_output100_I
*604 ANTENNA_output110_I
*605 ANTENNA_output111_I
*606 ANTENNA_output112_I
*607 ANTENNA_output113_I
*608 ANTENNA_output114_I
*609 ANTENNA_output115_I
*610 ANTENNA_output116_I
*611 ANTENNA_output117_I
*612 ANTENNA_output118_I
*613 ANTENNA_output119_I
*614 ANTENNA_output120_I
*615 ANTENNA_output121_I
*616 ANTENNA_output122_I
*617 ANTENNA_output123_I
*618 ANTENNA_output124_I
*619 ANTENNA_output125_I
*620 ANTENNA_output92_I
*621 ANTENNA_output93_I
*622 ANTENNA_output94_I
*623 ANTENNA_output95_I
*624 ANTENNA_output96_I
*625 ANTENNA_output97_I
*626 ANTENNA_output98_I
*627 ANTENNA_output99_I
*628 FILLER_0_0_1002
*629 FILLER_0_0_101
*630 FILLER_0_0_1011
*631 FILLER_0_0_1019
*632 FILLER_0_0_1022
*633 FILLER_0_0_1026
*634 FILLER_0_0_1035
*635 FILLER_0_0_104
*636 FILLER_0_0_1051
*637 FILLER_0_0_1062
*638 FILLER_0_0_1070
*639 FILLER_0_0_1074
*640 FILLER_0_0_1083
*641 FILLER_0_0_1087
*642 FILLER_0_0_1090
*643 FILLER_0_0_1098
*644 FILLER_0_0_1107
*645 FILLER_0_0_1115
*646 FILLER_0_0_1119
*647 FILLER_0_0_112
*648 FILLER_0_0_1124
*649 FILLER_0_0_1131
*650 FILLER_0_0_1155
*651 FILLER_0_0_1158
*652 FILLER_0_0_116
*653 FILLER_0_0_1166
*654 FILLER_0_0_1170
*655 FILLER_0_0_1179
*656 FILLER_0_0_1187
*657 FILLER_0_0_1189
*658 FILLER_0_0_1192
*659 FILLER_0_0_1194
*660 FILLER_0_0_1203
*661 FILLER_0_0_121
*662 FILLER_0_0_1219
*663 FILLER_0_0_1221
*664 FILLER_0_0_1232
*665 FILLER_0_0_1240
*666 FILLER_0_0_1242
*667 FILLER_0_0_1251
*668 FILLER_0_0_1255
*669 FILLER_0_0_1257
*670 FILLER_0_0_1260
*671 FILLER_0_0_1264
*672 FILLER_0_0_1266
*673 FILLER_0_0_1275
*674 FILLER_0_0_1283
*675 FILLER_0_0_1287
*676 FILLER_0_0_1289
*677 FILLER_0_0_129
*678 FILLER_0_0_1300
*679 FILLER_0_0_1302
*680 FILLER_0_0_1305
*681 FILLER_0_0_1309
*682 FILLER_0_0_1313
*683 FILLER_0_0_1323
*684 FILLER_0_0_1325
*685 FILLER_0_0_1328
*686 FILLER_0_0_133
*687 FILLER_0_0_1332
*688 FILLER_0_0_1341
*689 FILLER_0_0_1343
*690 FILLER_0_0_135
*691 FILLER_0_0_1359
*692 FILLER_0_0_1376
*693 FILLER_0_0_138
*694 FILLER_0_0_1380
*695 FILLER_0_0_1384
*696 FILLER_0_0_1388
*697 FILLER_0_0_140
*698 FILLER_0_0_1402
*699 FILLER_0_0_1410
*700 FILLER_0_0_1419
*701 FILLER_0_0_1427
*702 FILLER_0_0_1430
*703 FILLER_0_0_1432
*704 FILLER_0_0_1435
*705 FILLER_0_0_145
*706 FILLER_0_0_1451
*707 FILLER_0_0_1459
*708 FILLER_0_0_1470
*709 FILLER_0_0_1478
*710 FILLER_0_0_1482
*711 FILLER_0_0_1491
*712 FILLER_0_0_1495
*713 FILLER_0_0_1498
*714 FILLER_0_0_1506
*715 FILLER_0_0_1515
*716 FILLER_0_0_1523
*717 FILLER_0_0_1527
*718 FILLER_0_0_1532
*719 FILLER_0_0_1539
*720 FILLER_0_0_1563
*721 FILLER_0_0_1566
*722 FILLER_0_0_1574
*723 FILLER_0_0_1578
*724 FILLER_0_0_1587
*725 FILLER_0_0_1595
*726 FILLER_0_0_1597
*727 FILLER_0_0_1600
*728 FILLER_0_0_1602
*729 FILLER_0_0_161
*730 FILLER_0_0_1611
*731 FILLER_0_0_1627
*732 FILLER_0_0_1629
*733 FILLER_0_0_1640
*734 FILLER_0_0_1648
*735 FILLER_0_0_1650
*736 FILLER_0_0_1659
*737 FILLER_0_0_1663
*738 FILLER_0_0_1665
*739 FILLER_0_0_1668
*740 FILLER_0_0_1672
*741 FILLER_0_0_1674
*742 FILLER_0_0_1683
*743 FILLER_0_0_169
*744 FILLER_0_0_1691
*745 FILLER_0_0_1695
*746 FILLER_0_0_1697
*747 FILLER_0_0_1708
*748 FILLER_0_0_1716
*749 FILLER_0_0_172
*750 FILLER_0_0_1720
*751 FILLER_0_0_1722
*752 FILLER_0_0_1731
*753 FILLER_0_0_1733
*754 FILLER_0_0_1736
*755 FILLER_0_0_1744
*756 FILLER_0_0_1746
*757 FILLER_0_0_1757
*758 FILLER_0_0_1765
*759 FILLER_0_0_1770
*760 FILLER_0_0_1772
*761 FILLER_0_0_1781
*762 FILLER_0_0_1797
*763 FILLER_0_0_1799
*764 FILLER_0_0_1812
*765 FILLER_0_0_1816
*766 FILLER_0_0_1818
*767 FILLER_0_0_1829
*768 FILLER_0_0_1833
*769 FILLER_0_0_1835
*770 FILLER_0_0_1838
*771 FILLER_0_0_1842
*772 FILLER_0_0_1853
*773 FILLER_0_0_1861
*774 FILLER_0_0_1865
*775 FILLER_0_0_1867
*776 FILLER_0_0_188
*777 FILLER_0_0_1880
*778 FILLER_0_0_1888
*779 FILLER_0_0_1890
*780 FILLER_0_0_1901
*781 FILLER_0_0_1903
*782 FILLER_0_0_1906
*783 FILLER_0_0_1914
*784 FILLER_0_0_1925
*785 FILLER_0_0_193
*786 FILLER_0_0_1933
*787 FILLER_0_0_1937
*788 FILLER_0_0_2
*789 FILLER_0_0_201
*790 FILLER_0_0_203
*791 FILLER_0_0_206
*792 FILLER_0_0_210
*793 FILLER_0_0_212
*794 FILLER_0_0_217
*795 FILLER_0_0_233
*796 FILLER_0_0_237
*797 FILLER_0_0_266
*798 FILLER_0_0_270
*799 FILLER_0_0_274
*800 FILLER_0_0_278
*801 FILLER_0_0_308
*802 FILLER_0_0_335
*803 FILLER_0_0_339
*804 FILLER_0_0_36
*805 FILLER_0_0_368
*806 FILLER_0_0_372
*807 FILLER_0_0_376
*808 FILLER_0_0_380
*809 FILLER_0_0_407
*810 FILLER_0_0_436
*811 FILLER_0_0_44
*812 FILLER_0_0_440
*813 FILLER_0_0_444
*814 FILLER_0_0_448
*815 FILLER_0_0_49
*816 FILLER_0_0_504
*817 FILLER_0_0_508
*818 FILLER_0_0_512
*819 FILLER_0_0_516
*820 FILLER_0_0_546
*821 FILLER_0_0_548
*822 FILLER_0_0_575
*823 FILLER_0_0_577
*824 FILLER_0_0_606
*825 FILLER_0_0_610
*826 FILLER_0_0_614
*827 FILLER_0_0_618
*828 FILLER_0_0_65
*829 FILLER_0_0_67
*830 FILLER_0_0_674
*831 FILLER_0_0_678
*832 FILLER_0_0_682
*833 FILLER_0_0_686
*834 FILLER_0_0_716
*835 FILLER_0_0_74
*836 FILLER_0_0_743
*837 FILLER_0_0_747
*838 FILLER_0_0_750
*839 FILLER_0_0_754
*840 FILLER_0_0_784
*841 FILLER_0_0_786
*842 FILLER_0_0_795
*843 FILLER_0_0_811
*844 FILLER_0_0_813
*845 FILLER_0_0_824
*846 FILLER_0_0_832
*847 FILLER_0_0_834
*848 FILLER_0_0_843
*849 FILLER_0_0_847
*850 FILLER_0_0_849
*851 FILLER_0_0_852
*852 FILLER_0_0_856
*853 FILLER_0_0_858
*854 FILLER_0_0_867
*855 FILLER_0_0_875
*856 FILLER_0_0_879
*857 FILLER_0_0_881
*858 FILLER_0_0_892
*859 FILLER_0_0_90
*860 FILLER_0_0_900
*861 FILLER_0_0_904
*862 FILLER_0_0_906
*863 FILLER_0_0_915
*864 FILLER_0_0_917
*865 FILLER_0_0_92
*866 FILLER_0_0_920
*867 FILLER_0_0_928
*868 FILLER_0_0_930
*869 FILLER_0_0_939
*870 FILLER_0_0_947
*871 FILLER_0_0_949
*872 FILLER_0_0_954
*873 FILLER_0_0_956
*874 FILLER_0_0_963
*875 FILLER_0_0_97
*876 FILLER_0_0_979
*877 FILLER_0_0_983
*878 FILLER_0_0_994
*879 FILLER_0_10_101
*880 FILLER_0_10_1011
*881 FILLER_0_10_1017
*882 FILLER_0_10_107
*883 FILLER_0_10_1081
*884 FILLER_0_10_1087
*885 FILLER_0_10_1151
*886 FILLER_0_10_1157
*887 FILLER_0_10_1221
*888 FILLER_0_10_1227
*889 FILLER_0_10_1291
*890 FILLER_0_10_1297
*891 FILLER_0_10_1301
*892 FILLER_0_10_1318
*893 FILLER_0_10_1322
*894 FILLER_0_10_1326
*895 FILLER_0_10_1333
*896 FILLER_0_10_1367
*897 FILLER_0_10_1371
*898 FILLER_0_10_1380
*899 FILLER_0_10_1393
*900 FILLER_0_10_1397
*901 FILLER_0_10_1429
*902 FILLER_0_10_1433
*903 FILLER_0_10_1455
*904 FILLER_0_10_1459
*905 FILLER_0_10_1491
*906 FILLER_0_10_1499
*907 FILLER_0_10_1503
*908 FILLER_0_10_1507
*909 FILLER_0_10_1571
*910 FILLER_0_10_1577
*911 FILLER_0_10_1641
*912 FILLER_0_10_1647
*913 FILLER_0_10_171
*914 FILLER_0_10_1711
*915 FILLER_0_10_1717
*916 FILLER_0_10_177
*917 FILLER_0_10_1781
*918 FILLER_0_10_1787
*919 FILLER_0_10_1851
*920 FILLER_0_10_1857
*921 FILLER_0_10_1921
*922 FILLER_0_10_1927
*923 FILLER_0_10_1935
*924 FILLER_0_10_1937
*925 FILLER_0_10_2
*926 FILLER_0_10_241
*927 FILLER_0_10_247
*928 FILLER_0_10_311
*929 FILLER_0_10_317
*930 FILLER_0_10_34
*931 FILLER_0_10_37
*932 FILLER_0_10_381
*933 FILLER_0_10_387
*934 FILLER_0_10_451
*935 FILLER_0_10_457
*936 FILLER_0_10_521
*937 FILLER_0_10_527
*938 FILLER_0_10_591
*939 FILLER_0_10_597
*940 FILLER_0_10_661
*941 FILLER_0_10_667
*942 FILLER_0_10_731
*943 FILLER_0_10_737
*944 FILLER_0_10_801
*945 FILLER_0_10_807
*946 FILLER_0_10_871
*947 FILLER_0_10_877
*948 FILLER_0_10_941
*949 FILLER_0_10_947
*950 FILLER_0_11_1046
*951 FILLER_0_11_1052
*952 FILLER_0_11_1116
*953 FILLER_0_11_1122
*954 FILLER_0_11_1186
*955 FILLER_0_11_1192
*956 FILLER_0_11_1256
*957 FILLER_0_11_1262
*958 FILLER_0_11_1326
*959 FILLER_0_11_1332
*960 FILLER_0_11_136
*961 FILLER_0_11_1364
*962 FILLER_0_11_1372
*963 FILLER_0_11_1376
*964 FILLER_0_11_1378
*965 FILLER_0_11_1387
*966 FILLER_0_11_1395
*967 FILLER_0_11_1399
*968 FILLER_0_11_1402
*969 FILLER_0_11_142
*970 FILLER_0_11_1434
*971 FILLER_0_11_1442
*972 FILLER_0_11_1448
*973 FILLER_0_11_1464
*974 FILLER_0_11_1468
*975 FILLER_0_11_1472
*976 FILLER_0_11_1536
*977 FILLER_0_11_1542
*978 FILLER_0_11_1606
*979 FILLER_0_11_1612
*980 FILLER_0_11_1676
*981 FILLER_0_11_1682
*982 FILLER_0_11_1746
*983 FILLER_0_11_1752
*984 FILLER_0_11_1816
*985 FILLER_0_11_1822
*986 FILLER_0_11_1886
*987 FILLER_0_11_1892
*988 FILLER_0_11_1924
*989 FILLER_0_11_1932
*990 FILLER_0_11_1936
*991 FILLER_0_11_2
*992 FILLER_0_11_206
*993 FILLER_0_11_212
*994 FILLER_0_11_276
*995 FILLER_0_11_282
*996 FILLER_0_11_346
*997 FILLER_0_11_352
*998 FILLER_0_11_416
*999 FILLER_0_11_422
*1000 FILLER_0_11_486
*1001 FILLER_0_11_492
*1002 FILLER_0_11_556
*1003 FILLER_0_11_562
*1004 FILLER_0_11_626
*1005 FILLER_0_11_632
*1006 FILLER_0_11_66
*1007 FILLER_0_11_696
*1008 FILLER_0_11_702
*1009 FILLER_0_11_72
*1010 FILLER_0_11_766
*1011 FILLER_0_11_772
*1012 FILLER_0_11_836
*1013 FILLER_0_11_842
*1014 FILLER_0_11_906
*1015 FILLER_0_11_912
*1016 FILLER_0_11_976
*1017 FILLER_0_11_982
*1018 FILLER_0_12_101
*1019 FILLER_0_12_1011
*1020 FILLER_0_12_1017
*1021 FILLER_0_12_107
*1022 FILLER_0_12_1081
*1023 FILLER_0_12_1087
*1024 FILLER_0_12_1151
*1025 FILLER_0_12_1157
*1026 FILLER_0_12_1221
*1027 FILLER_0_12_1227
*1028 FILLER_0_12_1291
*1029 FILLER_0_12_1297
*1030 FILLER_0_12_1361
*1031 FILLER_0_12_1367
*1032 FILLER_0_12_1431
*1033 FILLER_0_12_1437
*1034 FILLER_0_12_1501
*1035 FILLER_0_12_1507
*1036 FILLER_0_12_1571
*1037 FILLER_0_12_1577
*1038 FILLER_0_12_1641
*1039 FILLER_0_12_1647
*1040 FILLER_0_12_171
*1041 FILLER_0_12_1711
*1042 FILLER_0_12_1717
*1043 FILLER_0_12_177
*1044 FILLER_0_12_1781
*1045 FILLER_0_12_1787
*1046 FILLER_0_12_1851
*1047 FILLER_0_12_1857
*1048 FILLER_0_12_1921
*1049 FILLER_0_12_1927
*1050 FILLER_0_12_1935
*1051 FILLER_0_12_1937
*1052 FILLER_0_12_2
*1053 FILLER_0_12_241
*1054 FILLER_0_12_247
*1055 FILLER_0_12_311
*1056 FILLER_0_12_317
*1057 FILLER_0_12_34
*1058 FILLER_0_12_37
*1059 FILLER_0_12_381
*1060 FILLER_0_12_387
*1061 FILLER_0_12_451
*1062 FILLER_0_12_457
*1063 FILLER_0_12_521
*1064 FILLER_0_12_527
*1065 FILLER_0_12_591
*1066 FILLER_0_12_597
*1067 FILLER_0_12_661
*1068 FILLER_0_12_667
*1069 FILLER_0_12_731
*1070 FILLER_0_12_737
*1071 FILLER_0_12_801
*1072 FILLER_0_12_807
*1073 FILLER_0_12_871
*1074 FILLER_0_12_877
*1075 FILLER_0_12_941
*1076 FILLER_0_12_947
*1077 FILLER_0_13_1046
*1078 FILLER_0_13_1052
*1079 FILLER_0_13_1116
*1080 FILLER_0_13_1122
*1081 FILLER_0_13_1186
*1082 FILLER_0_13_1192
*1083 FILLER_0_13_1256
*1084 FILLER_0_13_1262
*1085 FILLER_0_13_1326
*1086 FILLER_0_13_1332
*1087 FILLER_0_13_136
*1088 FILLER_0_13_1396
*1089 FILLER_0_13_1402
*1090 FILLER_0_13_142
*1091 FILLER_0_13_1466
*1092 FILLER_0_13_1472
*1093 FILLER_0_13_1536
*1094 FILLER_0_13_1542
*1095 FILLER_0_13_1606
*1096 FILLER_0_13_1612
*1097 FILLER_0_13_1676
*1098 FILLER_0_13_1682
*1099 FILLER_0_13_1746
*1100 FILLER_0_13_1752
*1101 FILLER_0_13_1816
*1102 FILLER_0_13_1822
*1103 FILLER_0_13_1886
*1104 FILLER_0_13_1892
*1105 FILLER_0_13_1924
*1106 FILLER_0_13_1932
*1107 FILLER_0_13_1936
*1108 FILLER_0_13_2
*1109 FILLER_0_13_206
*1110 FILLER_0_13_212
*1111 FILLER_0_13_276
*1112 FILLER_0_13_282
*1113 FILLER_0_13_346
*1114 FILLER_0_13_352
*1115 FILLER_0_13_416
*1116 FILLER_0_13_422
*1117 FILLER_0_13_486
*1118 FILLER_0_13_492
*1119 FILLER_0_13_556
*1120 FILLER_0_13_562
*1121 FILLER_0_13_626
*1122 FILLER_0_13_632
*1123 FILLER_0_13_66
*1124 FILLER_0_13_696
*1125 FILLER_0_13_702
*1126 FILLER_0_13_72
*1127 FILLER_0_13_766
*1128 FILLER_0_13_772
*1129 FILLER_0_13_836
*1130 FILLER_0_13_842
*1131 FILLER_0_13_906
*1132 FILLER_0_13_912
*1133 FILLER_0_13_976
*1134 FILLER_0_13_982
*1135 FILLER_0_14_101
*1136 FILLER_0_14_1011
*1137 FILLER_0_14_1017
*1138 FILLER_0_14_107
*1139 FILLER_0_14_1081
*1140 FILLER_0_14_1087
*1141 FILLER_0_14_1151
*1142 FILLER_0_14_1157
*1143 FILLER_0_14_1221
*1144 FILLER_0_14_1227
*1145 FILLER_0_14_1291
*1146 FILLER_0_14_1297
*1147 FILLER_0_14_1361
*1148 FILLER_0_14_1367
*1149 FILLER_0_14_1431
*1150 FILLER_0_14_1437
*1151 FILLER_0_14_1501
*1152 FILLER_0_14_1507
*1153 FILLER_0_14_1571
*1154 FILLER_0_14_1577
*1155 FILLER_0_14_1641
*1156 FILLER_0_14_1647
*1157 FILLER_0_14_171
*1158 FILLER_0_14_1711
*1159 FILLER_0_14_1717
*1160 FILLER_0_14_177
*1161 FILLER_0_14_1781
*1162 FILLER_0_14_1787
*1163 FILLER_0_14_1851
*1164 FILLER_0_14_1857
*1165 FILLER_0_14_1921
*1166 FILLER_0_14_1927
*1167 FILLER_0_14_1935
*1168 FILLER_0_14_1937
*1169 FILLER_0_14_2
*1170 FILLER_0_14_241
*1171 FILLER_0_14_247
*1172 FILLER_0_14_311
*1173 FILLER_0_14_317
*1174 FILLER_0_14_34
*1175 FILLER_0_14_37
*1176 FILLER_0_14_381
*1177 FILLER_0_14_387
*1178 FILLER_0_14_451
*1179 FILLER_0_14_457
*1180 FILLER_0_14_521
*1181 FILLER_0_14_527
*1182 FILLER_0_14_591
*1183 FILLER_0_14_597
*1184 FILLER_0_14_661
*1185 FILLER_0_14_667
*1186 FILLER_0_14_731
*1187 FILLER_0_14_737
*1188 FILLER_0_14_801
*1189 FILLER_0_14_807
*1190 FILLER_0_14_871
*1191 FILLER_0_14_877
*1192 FILLER_0_14_941
*1193 FILLER_0_14_947
*1194 FILLER_0_15_1046
*1195 FILLER_0_15_1052
*1196 FILLER_0_15_1116
*1197 FILLER_0_15_1122
*1198 FILLER_0_15_1186
*1199 FILLER_0_15_1192
*1200 FILLER_0_15_1256
*1201 FILLER_0_15_1262
*1202 FILLER_0_15_1326
*1203 FILLER_0_15_1332
*1204 FILLER_0_15_136
*1205 FILLER_0_15_1396
*1206 FILLER_0_15_1402
*1207 FILLER_0_15_142
*1208 FILLER_0_15_1466
*1209 FILLER_0_15_1472
*1210 FILLER_0_15_1536
*1211 FILLER_0_15_1542
*1212 FILLER_0_15_1606
*1213 FILLER_0_15_1612
*1214 FILLER_0_15_1676
*1215 FILLER_0_15_1682
*1216 FILLER_0_15_1746
*1217 FILLER_0_15_1752
*1218 FILLER_0_15_1816
*1219 FILLER_0_15_1822
*1220 FILLER_0_15_1886
*1221 FILLER_0_15_1892
*1222 FILLER_0_15_1924
*1223 FILLER_0_15_1932
*1224 FILLER_0_15_1936
*1225 FILLER_0_15_2
*1226 FILLER_0_15_206
*1227 FILLER_0_15_212
*1228 FILLER_0_15_276
*1229 FILLER_0_15_282
*1230 FILLER_0_15_346
*1231 FILLER_0_15_352
*1232 FILLER_0_15_416
*1233 FILLER_0_15_422
*1234 FILLER_0_15_486
*1235 FILLER_0_15_492
*1236 FILLER_0_15_556
*1237 FILLER_0_15_562
*1238 FILLER_0_15_626
*1239 FILLER_0_15_632
*1240 FILLER_0_15_66
*1241 FILLER_0_15_696
*1242 FILLER_0_15_702
*1243 FILLER_0_15_72
*1244 FILLER_0_15_766
*1245 FILLER_0_15_772
*1246 FILLER_0_15_836
*1247 FILLER_0_15_842
*1248 FILLER_0_15_906
*1249 FILLER_0_15_912
*1250 FILLER_0_15_976
*1251 FILLER_0_15_982
*1252 FILLER_0_16_101
*1253 FILLER_0_16_1011
*1254 FILLER_0_16_1017
*1255 FILLER_0_16_107
*1256 FILLER_0_16_1081
*1257 FILLER_0_16_1087
*1258 FILLER_0_16_1151
*1259 FILLER_0_16_1157
*1260 FILLER_0_16_1221
*1261 FILLER_0_16_1227
*1262 FILLER_0_16_1291
*1263 FILLER_0_16_1297
*1264 FILLER_0_16_1361
*1265 FILLER_0_16_1367
*1266 FILLER_0_16_1431
*1267 FILLER_0_16_1437
*1268 FILLER_0_16_1501
*1269 FILLER_0_16_1507
*1270 FILLER_0_16_1571
*1271 FILLER_0_16_1577
*1272 FILLER_0_16_1641
*1273 FILLER_0_16_1647
*1274 FILLER_0_16_171
*1275 FILLER_0_16_1711
*1276 FILLER_0_16_1717
*1277 FILLER_0_16_177
*1278 FILLER_0_16_1781
*1279 FILLER_0_16_1787
*1280 FILLER_0_16_1851
*1281 FILLER_0_16_1857
*1282 FILLER_0_16_1921
*1283 FILLER_0_16_1927
*1284 FILLER_0_16_1935
*1285 FILLER_0_16_1937
*1286 FILLER_0_16_2
*1287 FILLER_0_16_241
*1288 FILLER_0_16_247
*1289 FILLER_0_16_311
*1290 FILLER_0_16_317
*1291 FILLER_0_16_34
*1292 FILLER_0_16_37
*1293 FILLER_0_16_381
*1294 FILLER_0_16_387
*1295 FILLER_0_16_451
*1296 FILLER_0_16_457
*1297 FILLER_0_16_521
*1298 FILLER_0_16_527
*1299 FILLER_0_16_591
*1300 FILLER_0_16_597
*1301 FILLER_0_16_661
*1302 FILLER_0_16_667
*1303 FILLER_0_16_731
*1304 FILLER_0_16_737
*1305 FILLER_0_16_801
*1306 FILLER_0_16_807
*1307 FILLER_0_16_871
*1308 FILLER_0_16_877
*1309 FILLER_0_16_941
*1310 FILLER_0_16_947
*1311 FILLER_0_17_1046
*1312 FILLER_0_17_1052
*1313 FILLER_0_17_1116
*1314 FILLER_0_17_1122
*1315 FILLER_0_17_1186
*1316 FILLER_0_17_1192
*1317 FILLER_0_17_1256
*1318 FILLER_0_17_1262
*1319 FILLER_0_17_1326
*1320 FILLER_0_17_1332
*1321 FILLER_0_17_136
*1322 FILLER_0_17_1396
*1323 FILLER_0_17_1402
*1324 FILLER_0_17_142
*1325 FILLER_0_17_1466
*1326 FILLER_0_17_1472
*1327 FILLER_0_17_1536
*1328 FILLER_0_17_1542
*1329 FILLER_0_17_1606
*1330 FILLER_0_17_1612
*1331 FILLER_0_17_1676
*1332 FILLER_0_17_1682
*1333 FILLER_0_17_1746
*1334 FILLER_0_17_1752
*1335 FILLER_0_17_1816
*1336 FILLER_0_17_1822
*1337 FILLER_0_17_1886
*1338 FILLER_0_17_1892
*1339 FILLER_0_17_1924
*1340 FILLER_0_17_1932
*1341 FILLER_0_17_1936
*1342 FILLER_0_17_2
*1343 FILLER_0_17_206
*1344 FILLER_0_17_212
*1345 FILLER_0_17_276
*1346 FILLER_0_17_282
*1347 FILLER_0_17_346
*1348 FILLER_0_17_352
*1349 FILLER_0_17_416
*1350 FILLER_0_17_422
*1351 FILLER_0_17_486
*1352 FILLER_0_17_492
*1353 FILLER_0_17_556
*1354 FILLER_0_17_562
*1355 FILLER_0_17_626
*1356 FILLER_0_17_632
*1357 FILLER_0_17_66
*1358 FILLER_0_17_696
*1359 FILLER_0_17_702
*1360 FILLER_0_17_72
*1361 FILLER_0_17_766
*1362 FILLER_0_17_772
*1363 FILLER_0_17_836
*1364 FILLER_0_17_842
*1365 FILLER_0_17_906
*1366 FILLER_0_17_912
*1367 FILLER_0_17_976
*1368 FILLER_0_17_982
*1369 FILLER_0_18_101
*1370 FILLER_0_18_1011
*1371 FILLER_0_18_1017
*1372 FILLER_0_18_107
*1373 FILLER_0_18_1081
*1374 FILLER_0_18_1087
*1375 FILLER_0_18_1151
*1376 FILLER_0_18_1157
*1377 FILLER_0_18_1221
*1378 FILLER_0_18_1227
*1379 FILLER_0_18_1291
*1380 FILLER_0_18_1297
*1381 FILLER_0_18_1361
*1382 FILLER_0_18_1367
*1383 FILLER_0_18_1431
*1384 FILLER_0_18_1437
*1385 FILLER_0_18_1501
*1386 FILLER_0_18_1507
*1387 FILLER_0_18_1571
*1388 FILLER_0_18_1577
*1389 FILLER_0_18_1641
*1390 FILLER_0_18_1647
*1391 FILLER_0_18_171
*1392 FILLER_0_18_1711
*1393 FILLER_0_18_1717
*1394 FILLER_0_18_177
*1395 FILLER_0_18_1781
*1396 FILLER_0_18_1787
*1397 FILLER_0_18_1851
*1398 FILLER_0_18_1857
*1399 FILLER_0_18_1921
*1400 FILLER_0_18_1927
*1401 FILLER_0_18_1935
*1402 FILLER_0_18_1937
*1403 FILLER_0_18_2
*1404 FILLER_0_18_241
*1405 FILLER_0_18_247
*1406 FILLER_0_18_311
*1407 FILLER_0_18_317
*1408 FILLER_0_18_34
*1409 FILLER_0_18_37
*1410 FILLER_0_18_381
*1411 FILLER_0_18_387
*1412 FILLER_0_18_451
*1413 FILLER_0_18_457
*1414 FILLER_0_18_521
*1415 FILLER_0_18_527
*1416 FILLER_0_18_591
*1417 FILLER_0_18_597
*1418 FILLER_0_18_661
*1419 FILLER_0_18_667
*1420 FILLER_0_18_731
*1421 FILLER_0_18_737
*1422 FILLER_0_18_801
*1423 FILLER_0_18_807
*1424 FILLER_0_18_871
*1425 FILLER_0_18_877
*1426 FILLER_0_18_941
*1427 FILLER_0_18_947
*1428 FILLER_0_19_1046
*1429 FILLER_0_19_1052
*1430 FILLER_0_19_1116
*1431 FILLER_0_19_1122
*1432 FILLER_0_19_1186
*1433 FILLER_0_19_1192
*1434 FILLER_0_19_1256
*1435 FILLER_0_19_1262
*1436 FILLER_0_19_1326
*1437 FILLER_0_19_1332
*1438 FILLER_0_19_136
*1439 FILLER_0_19_1396
*1440 FILLER_0_19_1402
*1441 FILLER_0_19_142
*1442 FILLER_0_19_1466
*1443 FILLER_0_19_1472
*1444 FILLER_0_19_1536
*1445 FILLER_0_19_1542
*1446 FILLER_0_19_1606
*1447 FILLER_0_19_1612
*1448 FILLER_0_19_1676
*1449 FILLER_0_19_1682
*1450 FILLER_0_19_1746
*1451 FILLER_0_19_1752
*1452 FILLER_0_19_1816
*1453 FILLER_0_19_1822
*1454 FILLER_0_19_1886
*1455 FILLER_0_19_1892
*1456 FILLER_0_19_1924
*1457 FILLER_0_19_1932
*1458 FILLER_0_19_1936
*1459 FILLER_0_19_2
*1460 FILLER_0_19_206
*1461 FILLER_0_19_212
*1462 FILLER_0_19_276
*1463 FILLER_0_19_282
*1464 FILLER_0_19_346
*1465 FILLER_0_19_352
*1466 FILLER_0_19_416
*1467 FILLER_0_19_422
*1468 FILLER_0_19_486
*1469 FILLER_0_19_492
*1470 FILLER_0_19_556
*1471 FILLER_0_19_562
*1472 FILLER_0_19_626
*1473 FILLER_0_19_632
*1474 FILLER_0_19_66
*1475 FILLER_0_19_696
*1476 FILLER_0_19_702
*1477 FILLER_0_19_72
*1478 FILLER_0_19_766
*1479 FILLER_0_19_772
*1480 FILLER_0_19_836
*1481 FILLER_0_19_842
*1482 FILLER_0_19_906
*1483 FILLER_0_19_912
*1484 FILLER_0_19_976
*1485 FILLER_0_19_982
*1486 FILLER_0_1_1046
*1487 FILLER_0_1_1052
*1488 FILLER_0_1_1116
*1489 FILLER_0_1_1122
*1490 FILLER_0_1_1154
*1491 FILLER_0_1_1158
*1492 FILLER_0_1_1162
*1493 FILLER_0_1_1178
*1494 FILLER_0_1_1184
*1495 FILLER_0_1_1188
*1496 FILLER_0_1_1192
*1497 FILLER_0_1_1198
*1498 FILLER_0_1_1206
*1499 FILLER_0_1_1210
*1500 FILLER_0_1_1212
*1501 FILLER_0_1_1262
*1502 FILLER_0_1_1266
*1503 FILLER_0_1_136
*1504 FILLER_0_1_1370
*1505 FILLER_0_1_1387
*1506 FILLER_0_1_1395
*1507 FILLER_0_1_1399
*1508 FILLER_0_1_1402
*1509 FILLER_0_1_1418
*1510 FILLER_0_1_142
*1511 FILLER_0_1_1422
*1512 FILLER_0_1_1426
*1513 FILLER_0_1_1435
*1514 FILLER_0_1_1456
*1515 FILLER_0_1_1464
*1516 FILLER_0_1_1466
*1517 FILLER_0_1_1469