*SPEF "ieee 1481-1999"
*DESIGN "serial_ports"
*DATE "11:11:11 Fri 11 11, 1111"
*VENDOR "OpenRCX"
*PROGRAM "Parallel Extraction"
*VERSION "1.0"
*DESIGN_FLOW "NAME_SCOPE LOCAL" "PIN_CAP NONE"
*DIVIDER /
*DELIMITER :
*BUS_DELIMITER []
*T_UNIT 1 NS
*C_UNIT 1 PF
*R_UNIT 1 OHM
*L_UNIT 1 HENRY

*NAME_MAP
*1 RXD
*2 TXD
*3 addr[0]
*4 addr[1]
*5 addr[2]
*6 bus_cyc
*7 bus_we
*8 data_in[0]
*9 data_in[1]
*10 data_in[2]
*11 data_in[3]
*12 data_in[4]
*13 data_in[5]
*14 data_in[6]
*15 data_in[7]
*16 data_out[0]
*17 data_out[1]
*18 data_out[2]
*19 data_out[3]
*20 data_out[4]
*21 data_out[5]
*22 data_out[6]
*23 data_out[7]
*24 io_in
*25 net29
*26 net30
*27 net32
*28 io_out[0]
*29 io_out[1]
*30 net31
*31 irq3
*32 rst
*35 wb_clk_i
*36 _0000_
*37 _0001_
*38 _0002_
*39 _0003_
*40 _0004_
*41 _0005_
*42 _0006_
*43 _0007_
*44 _0008_
*45 _0009_
*46 _0010_
*47 _0011_
*48 _0012_
*49 _0013_
*50 _0014_
*51 _0015_
*52 _0016_
*53 _0017_
*54 _0018_
*55 _0019_
*56 _0020_
*57 _0021_
*58 _0022_
*59 _0023_
*60 _0024_
*61 _0025_
*62 _0026_
*63 _0027_
*64 _0028_
*65 _0029_
*66 _0030_
*67 _0031_
*68 _0032_
*69 _0033_
*70 _0034_
*71 _0035_
*72 _0036_
*73 _0037_
*74 _0038_
*75 _0039_
*76 _0040_
*77 _0041_
*78 _0042_
*79 _0043_
*80 _0044_
*81 _0045_
*82 _0046_
*83 _0047_
*84 _0048_
*85 _0049_
*86 _0050_
*87 _0051_
*88 _0052_
*89 _0053_
*90 _0054_
*91 _0055_
*92 _0056_
*93 _0057_
*94 _0058_
*95 _0059_
*96 _0060_
*97 _0061_
*98 _0062_
*99 _0063_
*100 _0064_
*101 _0065_
*102 _0066_
*103 _0067_
*104 _0068_
*105 _0069_
*106 _0070_
*107 _0071_
*108 _0072_
*109 _0073_
*110 _0074_
*111 _0075_
*112 _0076_
*113 _0077_
*114 _0078_
*115 _0079_
*116 _0080_
*117 _0081_
*118 _0082_
*119 _0083_
*120 _0084_
*121 _0085_
*122 _0086_
*123 _0087_
*124 _0088_
*125 _0089_
*126 _0090_
*127 _0091_
*128 _0092_
*129 _0093_
*130 _0094_
*131 _0095_
*132 _0096_
*133 _0097_
*134 _0098_
*135 _0099_
*136 _0100_
*137 _0101_
*138 _0102_
*139 _0103_
*140 _0104_
*141 _0105_
*142 _0106_
*143 _0107_
*144 _0108_
*145 _0109_
*146 _0110_
*147 _0111_
*148 _0112_
*149 _0113_
*150 _0114_
*151 _0115_
*152 _0116_
*153 _0117_
*154 _0118_
*155 _0119_
*156 _0120_
*157 _0121_
*158 _0122_
*159 _0123_
*160 _0124_
*161 _0125_
*162 _0126_
*163 _0127_
*164 _0128_
*165 _0129_
*166 _0130_
*167 _0131_
*168 _0132_
*169 _0133_
*170 _0134_
*171 _0135_
*172 _0136_
*173 _0137_
*174 _0138_
*175 _0139_
*176 _0140_
*177 _0141_
*178 _0142_
*179 _0143_
*180 _0144_
*181 _0145_
*182 _0146_
*183 _0147_
*184 _0148_
*185 _0149_
*186 _0150_
*187 _0151_
*188 _0152_
*189 _0153_
*190 _0154_
*191 _0155_
*192 _0156_
*193 _0157_
*194 _0158_
*195 _0159_
*196 _0160_
*197 _0161_
*198 _0162_
*199 _0163_
*200 _0164_
*201 _0165_
*202 _0166_
*203 _0167_
*204 _0168_
*205 _0169_
*206 _0170_
*207 _0171_
*208 _0172_
*209 _0173_
*210 _0174_
*211 _0175_
*212 _0176_
*213 _0177_
*214 _0178_
*215 _0179_
*216 _0180_
*217 _0181_
*218 _0182_
*219 _0183_
*220 _0184_
*221 _0185_
*222 _0186_
*223 _0187_
*224 _0188_
*225 _0189_
*226 _0190_
*227 _0191_
*228 _0192_
*229 _0193_
*230 _0194_
*231 _0195_
*232 _0196_
*233 _0197_
*234 _0198_
*235 _0199_
*236 _0200_
*237 _0201_
*238 _0202_
*239 _0203_
*240 _0204_
*241 _0205_
*242 _0206_
*243 _0207_
*244 _0208_
*245 _0209_
*246 _0210_
*247 _0211_
*248 _0212_
*249 _0213_
*250 _0214_
*251 _0215_
*252 _0216_
*253 _0217_
*254 _0218_
*255 _0219_
*256 _0220_
*257 _0221_
*258 _0222_
*259 _0223_
*260 _0224_
*261 _0225_
*262 _0226_
*263 _0227_
*264 _0228_
*265 _0229_
*266 _0230_
*267 _0231_
*268 _0232_
*269 _0233_
*270 _0234_
*271 _0235_
*272 _0236_
*273 _0237_
*274 _0238_
*275 _0239_
*276 _0240_
*277 _0241_
*278 _0242_
*279 _0243_
*280 _0244_
*281 _0245_
*282 _0246_
*283 _0247_
*284 _0248_
*285 _0249_
*286 _0250_
*287 _0251_
*288 _0252_
*289 _0253_
*290 _0254_
*291 _0255_
*292 _0256_
*293 _0257_
*294 _0258_
*295 _0259_
*296 _0260_
*297 _0261_
*298 _0262_
*299 _0263_
*300 _0264_
*301 _0265_
*302 _0266_
*303 _0267_
*304 _0268_
*305 _0269_
*306 _0270_
*307 _0271_
*308 _0272_
*309 _0273_
*310 _0274_
*311 _0275_
*312 _0276_
*313 _0277_
*314 _0278_
*315 _0279_
*316 _0280_
*317 _0281_
*318 _0282_
*319 _0283_
*320 _0284_
*321 _0285_
*322 _0286_
*323 _0287_
*324 _0288_
*325 _0289_
*326 _0290_
*327 _0291_
*328 _0292_
*329 _0293_
*330 _0294_
*331 _0295_
*332 _0296_
*333 _0297_
*334 _0298_
*335 _0299_
*336 _0300_
*337 _0301_
*338 _0302_
*339 _0303_
*340 _0304_
*341 _0305_
*342 _0306_
*343 _0307_
*344 _0308_
*345 _0309_
*346 _0310_
*347 _0311_
*348 _0312_
*349 _0313_
*350 _0314_
*351 _0315_
*352 _0316_
*353 _0317_
*354 _0318_
*355 _0319_
*356 _0320_
*357 _0321_
*358 _0322_
*359 _0323_
*360 _0324_
*361 _0325_
*362 _0326_
*363 _0327_
*364 _0328_
*365 _0329_
*366 _0330_
*367 _0331_
*368 _0332_
*369 _0333_
*370 _0334_
*371 _0335_
*372 _0336_
*373 _0337_
*374 _0338_
*375 _0339_
*376 _0340_
*377 _0341_
*378 _0342_
*379 _0343_
*380 _0344_
*381 _0345_
*382 _0346_
*383 _0347_
*384 _0348_
*385 _0349_
*386 _0350_
*387 _0351_
*388 _0352_
*389 _0353_
*390 _0354_
*391 _0355_
*392 _0356_
*393 _0357_
*394 _0358_
*395 _0359_
*396 _0360_
*397 _0361_
*398 _0362_
*399 _0363_
*400 _0364_
*401 _0365_
*402 _0366_
*403 _0367_
*404 _0368_
*405 _0369_
*406 _0370_
*407 _0371_
*408 _0372_
*409 _0373_
*410 _0374_
*411 _0375_
*412 _0376_
*413 _0377_
*414 _0378_
*415 _0379_
*416 _0380_
*417 _0381_
*418 _0382_
*419 _0383_
*420 _0384_
*421 _0385_
*422 _0386_
*423 _0387_
*424 _0388_
*425 _0389_
*426 _0390_
*427 _0391_
*428 _0392_
*429 _0393_
*430 _0394_
*431 _0395_
*432 _0396_
*433 _0397_
*434 _0398_
*435 _0399_
*436 _0400_
*437 _0401_
*438 _0402_
*439 _0403_
*440 _0404_
*441 _0405_
*442 _0406_
*443 _0407_
*444 _0408_
*445 _0409_
*446 _0410_
*447 _0411_
*448 _0412_
*449 _0413_
*450 _0414_
*451 _0415_
*452 _0416_
*453 _0417_
*454 _0418_
*455 _0419_
*456 _0420_
*457 _0421_
*458 _0422_
*459 _0423_
*460 _0424_
*461 _0425_
*462 _0426_
*463 _0427_
*464 _0428_
*465 _0429_
*466 _0430_
*467 _0431_
*468 _0432_
*469 _0433_
*470 _0434_
*471 _0435_
*472 _0436_
*473 _0437_
*474 _0438_
*475 _0439_
*476 _0440_
*477 _0441_
*478 _0442_
*479 _0443_
*480 _0444_
*481 _0445_
*482 _0446_
*483 _0447_
*484 _0448_
*485 _0449_
*486 _0450_
*487 _0451_
*488 _0452_
*489 _0453_
*490 _0454_
*491 _0455_
*492 _0456_
*493 _0457_
*494 _0458_
*495 _0459_
*496 _0460_
*497 _0461_
*498 _0462_
*499 _0463_
*500 _0464_
*501 _0465_
*502 _0466_
*503 _0467_
*504 _0468_
*505 _0469_
*506 _0470_
*507 _0471_
*508 _0472_
*509 _0473_
*510 _0474_
*511 _0475_
*512 _0476_
*513 _0477_
*514 _0478_
*515 _0479_
*516 _0480_
*517 _0481_
*518 _0482_
*519 _0483_
*520 _0484_
*521 _0485_
*522 _0486_
*523 _0487_
*524 _0488_
*525 _0489_
*526 _0490_
*527 _0491_
*528 _0492_
*529 _0493_
*530 _0494_
*531 _0495_
*532 _0496_
*533 _0497_
*534 _0498_
*535 _0499_
*536 _0500_
*537 _0501_
*538 _0502_
*539 _0503_
*540 _0504_
*541 _0505_
*542 _0506_
*543 _0507_
*544 _0508_
*545 _0509_
*546 _0510_
*547 _0511_
*548 _0512_
*549 _0513_
*550 _0514_
*551 _0515_
*552 _0516_
*553 _0517_
*554 _0518_
*555 _0519_
*556 _0520_
*557 _0521_
*558 _0522_
*559 _0523_
*560 _0524_
*561 _0525_
*562 _0526_
*563 _0527_
*564 _0528_
*565 _0529_
*566 _0530_
*567 _0531_
*568 _0532_
*569 _0533_
*570 _0534_
*571 _0535_
*572 _0536_
*573 _0537_
*574 _0538_
*575 _0539_
*576 _0540_
*577 _0541_
*578 _0542_
*579 _0543_
*580 _0544_
*581 _0545_
*582 _0546_
*583 _0547_
*584 _0548_
*585 _0549_
*586 _0550_
*587 _0551_
*588 _0552_
*589 _0553_
*590 _0554_
*591 _0555_
*592 _0556_
*593 _0557_
*594 _0558_
*595 _0559_
*596 _0560_
*597 _0561_
*598 _0562_
*599 _0563_
*600 _0564_
*601 _0565_
*602 _0566_
*603 _0567_
*604 _0568_
*605 _0569_
*606 _0570_
*607 _0571_
*608 _0572_
*609 _0573_
*610 _0574_
*611 _0575_
*612 _0576_
*613 _0577_
*614 _0578_
*615 _0579_
*616 _0580_
*617 _0581_
*618 _0582_
*619 _0583_
*620 _0584_
*621 _0585_
*622 _0586_
*623 _0587_
*624 _0588_
*625 _0589_
*626 _0590_
*627 _0591_
*628 _0592_
*629 _0593_
*630 _0594_
*631 _0595_
*632 _0596_
*633 _0597_
*634 _0598_
*635 _0599_
*636 _0600_
*637 _0601_
*638 _0602_
*639 _0603_
*640 _0604_
*641 _0605_
*642 _0606_
*643 _0607_
*644 _0608_
*645 _0609_
*646 _0610_
*647 _0611_
*648 _0612_
*649 _0613_
*650 _0614_
*651 _0615_
*652 _0616_
*653 _0617_
*654 _0618_
*655 _0619_
*656 _0620_
*657 _0621_
*658 _0622_
*659 _0623_
*660 _0624_
*661 _0625_
*662 _0626_
*663 _0627_
*664 _0628_
*665 _0629_
*666 _0630_
*667 _0631_
*668 _0632_
*669 _0633_
*670 _0634_
*671 _0635_
*672 _0636_
*673 _0637_
*674 _0638_
*675 _0639_
*676 _0640_
*677 _0641_
*678 _0642_
*679 _0643_
*680 _0644_
*681 _0645_
*682 _0646_
*683 _0647_
*684 _0648_
*685 _0649_
*686 _0650_
*687 _0651_
*688 _0652_
*689 _0653_
*690 _0654_
*691 _0655_
*692 _0656_
*693 _0657_
*694 _0658_
*695 _0659_
*696 _0660_
*697 _0661_
*698 _0662_
*699 _0663_
*700 _0664_
*701 _0665_
*702 _0666_
*703 _0667_
*704 _0668_
*705 _0669_
*706 _0670_
*707 _0671_
*708 _0672_
*709 _0673_
*710 _0674_
*711 _0675_
*712 _0676_
*713 _0677_
*714 _0678_
*715 _0679_
*716 _0680_
*717 _0681_
*718 _0682_
*719 _0683_
*720 _0684_
*721 _0685_
*722 _0686_
*723 _0687_
*724 _0688_
*725 _0689_
*726 _0690_
*727 _0691_
*728 _0692_
*729 _0693_
*730 _0694_
*731 _0695_
*732 _0696_
*733 _0697_
*734 _0698_
*735 _0699_
*736 _0700_
*737 _0701_
*738 _0702_
*739 _0703_
*740 _0704_
*741 _0705_
*742 _0706_
*743 _0707_
*744 _0708_
*745 _0709_
*746 _0710_
*747 _0711_
*748 _0712_
*749 _0713_
*750 _0714_
*751 _0715_
*752 _0716_
*753 _0717_
*754 _0718_
*755 _0719_
*756 _0720_
*757 _0721_
*758 _0722_
*759 _0723_
*760 _0724_
*761 _0725_
*762 _0726_
*763 _0727_
*764 _0728_
*765 _0729_
*766 _0730_
*767 _0731_
*768 _0732_
*769 _0733_
*770 _0734_
*771 _0735_
*772 _0736_
*773 _0737_
*774 _0738_
*775 _0739_
*776 _0740_
*777 _0741_
*778 _0742_
*779 _0743_
*780 _0744_
*781 _0745_
*782 _0746_
*783 _0747_
*784 _0748_
*785 _0749_
*786 _0750_
*787 _0751_
*788 _0752_
*789 _0753_
*790 _0754_
*791 _0755_
*792 _0756_
*793 _0757_
*794 _0758_
*795 _0759_
*796 _0760_
*797 _0761_
*798 _0762_
*799 _0763_
*800 _0764_
*801 _0765_
*802 _0766_
*803 _0767_
*804 _0768_
*805 _0769_
*806 _0770_
*807 _0771_
*808 _0772_
*809 _0773_
*810 _0774_
*811 _0775_
*812 _0776_
*813 _0777_
*814 _0778_
*815 _0779_
*816 _0780_
*817 _0781_
*818 _0782_
*819 _0783_
*820 _0784_
*821 _0785_
*822 _0786_
*823 _0787_
*824 _0788_
*825 _0789_
*826 _0790_
*827 _0791_
*828 _0792_
*829 _0793_
*830 _0794_
*831 _0795_
*832 _0796_
*833 _0797_
*834 _0798_
*835 _0799_
*836 _0800_
*837 _0801_
*838 _0802_
*839 _0803_
*840 _0804_
*841 _0805_
*842 _0806_
*843 _0807_
*844 _0808_
*845 _0809_
*846 _0810_
*847 _0811_
*848 _0812_
*849 _0813_
*850 _0814_
*851 _0815_
*852 _0816_
*853 _0817_
*854 _0818_
*855 _0819_
*856 _0820_
*857 _0821_
*858 _0822_
*859 _0823_
*860 _0824_
*861 _0825_
*862 _0826_
*863 clknet_0_wb_clk_i
*864 clknet_4_0_0_wb_clk_i
*865 clknet_4_10_0_wb_clk_i
*866 clknet_4_11_0_wb_clk_i
*867 clknet_4_12_0_wb_clk_i
*868 clknet_4_13_0_wb_clk_i
*869 clknet_4_14_0_wb_clk_i
*870 clknet_4_15_0_wb_clk_i
*871 clknet_4_1_0_wb_clk_i
*872 clknet_4_2_0_wb_clk_i
*873 clknet_4_3_0_wb_clk_i
*874 clknet_4_4_0_wb_clk_i
*875 clknet_4_5_0_wb_clk_i
*876 clknet_4_6_0_wb_clk_i
*877 clknet_4_7_0_wb_clk_i
*878 clknet_4_8_0_wb_clk_i
*879 clknet_4_9_0_wb_clk_i
*880 net1
*881 net10
*882 net11
*883 net12
*884 net13
*885 net14
*886 net15
*887 net16
*888 net17
*889 net18
*890 net19
*891 net2
*892 net20
*893 net21
*894 net22
*895 net23
*896 net24
*897 net25
*898 net26
*899 net27
*900 net28
*901 net3
*902 net4
*903 net5
*904 net6
*905 net7
*906 net8
*907 net9
*908 spi\.busy
*909 spi\.counter\[0\]
*910 spi\.counter\[1\]
*911 spi\.counter\[2\]
*912 spi\.counter\[3\]
*913 spi\.counter\[4\]
*914 spi\.data_in_buff\[0\]
*915 spi\.data_in_buff\[1\]
*916 spi\.data_in_buff\[2\]
*917 spi\.data_in_buff\[3\]
*918 spi\.data_in_buff\[4\]
*919 spi\.data_in_buff\[5\]
*920 spi\.data_in_buff\[6\]
*921 spi\.data_in_buff\[7\]
*922 spi\.data_out_buff\[0\]
*923 spi\.data_out_buff\[1\]
*924 spi\.data_out_buff\[2\]
*925 spi\.data_out_buff\[3\]
*926 spi\.data_out_buff\[4\]
*927 spi\.data_out_buff\[5\]
*928 spi\.data_out_buff\[6\]
*929 spi\.data_out_buff\[7\]
*930 spi\.div_counter\[0\]
*931 spi\.div_counter\[1\]
*932 spi\.div_counter\[2\]
*933 spi\.div_counter\[3\]
*934 spi\.div_counter\[4\]
*935 spi\.div_counter\[5\]
*936 spi\.div_counter\[6\]
*937 spi\.div_counter\[7\]
*938 spi\.divisor\[0\]
*939 spi\.divisor\[1\]
*940 spi\.divisor\[2\]
*941 spi\.divisor\[3\]
*942 spi\.divisor\[4\]
*943 spi\.divisor\[5\]
*944 spi\.divisor\[6\]
*945 spi\.divisor\[7\]
*946 spi\.dout\[0\]
*947 spi\.dout\[1\]
*948 spi\.dout\[2\]
*949 spi\.dout\[3\]
*950 spi\.dout\[4\]
*951 spi\.dout\[5\]
*952 spi\.dout\[6\]
*953 spi\.dout\[7\]
*954 uart\.busy
*955 uart\.counter\[0\]
*956 uart\.counter\[1\]
*957 uart\.counter\[2\]
*958 uart\.counter\[3\]
*959 uart\.data_buff\[0\]
*960 uart\.data_buff\[1\]
*961 uart\.data_buff\[2\]
*962 uart\.data_buff\[3\]
*963 uart\.data_buff\[4\]
*964 uart\.data_buff\[5\]
*965 uart\.data_buff\[6\]
*966 uart\.data_buff\[7\]
*967 uart\.data_buff\[8\]
*968 uart\.data_buff\[9\]
*969 uart\.div_counter\[0\]
*970 uart\.div_counter\[10\]
*971 uart\.div_counter\[11\]
*972 uart\.div_counter\[12\]
*973 uart\.div_counter\[13\]
*974 uart\.div_counter\[14\]
*975 uart\.div_counter\[15\]
*976 uart\.div_counter\[1\]
*977 uart\.div_counter\[2\]
*978 uart\.div_counter\[3\]
*979 uart\.div_counter\[4\]
*980 uart\.div_counter\[5\]
*981 uart\.div_counter\[6\]
*982 uart\.div_counter\[7\]
*983 uart\.div_counter\[8\]
*984 uart\.div_counter\[9\]
*985 uart\.divisor\[0\]
*986 uart\.divisor\[10\]
*987 uart\.divisor\[11\]
*988 uart\.divisor\[12\]
*989 uart\.divisor\[13\]
*990 uart\.divisor\[14\]
*991 uart\.divisor\[15\]
*992 uart\.divisor\[1\]
*993 uart\.divisor\[2\]
*994 uart\.divisor\[3\]
*995 uart\.divisor\[4\]
*996 uart\.divisor\[5\]
*997 uart\.divisor\[6\]
*998 uart\.divisor\[7\]
*999 uart\.divisor\[8\]
*1000 uart\.divisor\[9\]
*1001 uart\.dout\[0\]
*1002 uart\.dout\[1\]
*1003 uart\.dout\[2\]
*1004 uart\.dout\[3\]
*1005 uart\.dout\[4\]
*1006 uart\.dout\[5\]
*1007 uart\.dout\[6\]
*1008 uart\.dout\[7\]
*1009 uart\.has_byte
*1010 uart\.receive_buff\[0\]
*1011 uart\.receive_buff\[1\]
*1012 uart\.receive_buff\[2\]
*1013 uart\.receive_buff\[3\]
*1014 uart\.receive_buff\[4\]
*1015 uart\.receive_buff\[5\]
*1016 uart\.receive_buff\[6\]
*1017 uart\.receive_buff\[7\]
*1018 uart\.receive_counter\[0\]
*1019 uart\.receive_counter\[1\]
*1020 uart\.receive_counter\[2\]
*1021 uart\.receive_counter\[3\]
*1022 uart\.receive_div_counter\[0\]
*1023 uart\.receive_div_counter\[10\]
*1024 uart\.receive_div_counter\[11\]
*1025 uart\.receive_div_counter\[12\]
*1026 uart\.receive_div_counter\[13\]
*1027 uart\.receive_div_counter\[14\]
*1028 uart\.receive_div_counter\[15\]
*1029 uart\.receive_div_counter\[1\]
*1030 uart\.receive_div_counter\[2\]
*1031 uart\.receive_div_counter\[3\]
*1032 uart\.receive_div_counter\[4\]
*1033 uart\.receive_div_counter\[5\]
*1034 uart\.receive_div_counter\[6\]
*1035 uart\.receive_div_counter\[7\]
*1036 uart\.receive_div_counter\[8\]
*1037 uart\.receive_div_counter\[9\]
*1038 uart\.receiving
*1039 uart_ien
*1040 ANTENNA__0827__I
*1041 ANTENNA__0833__I
*1042 ANTENNA__0834__I
*1043 ANTENNA__0836__A1
*1044 ANTENNA__0836__B2
*1045 ANTENNA__0840__A1
*1046 ANTENNA__0842__A1
*1047 ANTENNA__0842__B2
*1048 ANTENNA__0846__A1
*1049 ANTENNA__0854__I
*1050 ANTENNA__0855__I
*1051 ANTENNA__0857__A2
*1052 ANTENNA__0858__A1
*1053 ANTENNA__0858__A2
*1054 ANTENNA__0860__I
*1055 ANTENNA__0862__I
*1056 ANTENNA__0863__I
*1057 ANTENNA__0864__A1
*1058 ANTENNA__0866__A1
*1059 ANTENNA__0867__I
*1060 ANTENNA__0870__I
*1061 ANTENNA__0875__A1
*1062 ANTENNA__0881__A2
*1063 ANTENNA__0888__A2
*1064 ANTENNA__0894__A2
*1065 ANTENNA__0901__A2
*1066 ANTENNA__0905__A1
*1067 ANTENNA__0906__A2
*1068 ANTENNA__0910__A1
*1069 ANTENNA__0911__A1
*1070 ANTENNA__0911__A2
*1071 ANTENNA__0915__A1
*1072 ANTENNA__0919__A3
*1073 ANTENNA__0941__I
*1074 ANTENNA__0944__A2
*1075 ANTENNA__0948__A1
*1076 ANTENNA__0950__I
*1077 ANTENNA__0951__I
*1078 ANTENNA__0954__A2
*1079 ANTENNA__0955__A1
*1080 ANTENNA__0957__A1
*1081 ANTENNA__0957__A2
*1082 ANTENNA__0961__C
*1083 ANTENNA__0963__A2
*1084 ANTENNA__0967__I
*1085 ANTENNA__0968__B
*1086 ANTENNA__0972__I
*1087 ANTENNA__0973__C
*1088 ANTENNA__0977__A1
*1089 ANTENNA__0982__A1
*1090 ANTENNA__0987__B
*1091 ANTENNA__0995__B
*1092 ANTENNA__0998__B
*1093 ANTENNA__1002__B
*1094 ANTENNA__1003__A2
*1095 ANTENNA__1003__A3
*1096 ANTENNA__1007__C
*1097 ANTENNA__1009__I
*1098 ANTENNA__1012__B
*1099 ANTENNA__1015__B
*1100 ANTENNA__1016__I
*1101 ANTENNA__1032__I
*1102 ANTENNA__1033__I
*1103 ANTENNA__1035__B
*1104 ANTENNA__1036__A1
*1105 ANTENNA__1037__I0
*1106 ANTENNA__1039__A1
*1107 ANTENNA__1039__A2
*1108 ANTENNA__1040__I
*1109 ANTENNA__1041__I
*1110 ANTENNA__1045__A1
*1111 ANTENNA__1046__I
*1112 ANTENNA__1047__I
*1113 ANTENNA__1048__A1
*1114 ANTENNA__1049__A1
*1115 ANTENNA__1050__A1
*1116 ANTENNA__1051__I
*1117 ANTENNA__1055__A1
*1118 ANTENNA__1056__A1
*1119 ANTENNA__1059__A1
*1120 ANTENNA__1060__A1
*1121 ANTENNA__1062__I
*1122 ANTENNA__1064__A1
*1123 ANTENNA__1066__A1
*1124 ANTENNA__1069__A1
*1125 ANTENNA__1070__A1
*1126 ANTENNA__1073__A1
*1127 ANTENNA__1074__A1
*1128 ANTENNA__1077__A1
*1129 ANTENNA__1078__A1
*1130 ANTENNA__1080__A2
*1131 ANTENNA__1080__A3
*1132 ANTENNA__1081__I
*1133 ANTENNA__1082__I
*1134 ANTENNA__1085__I
*1135 ANTENNA__1088__A1
*1136 ANTENNA__1089__A2
*1137 ANTENNA__1091__I
*1138 ANTENNA__1092__B1
*1139 ANTENNA__1092__B2
*1140 ANTENNA__1095__I
*1141 ANTENNA__1097__I
*1142 ANTENNA__1098__A1
*1143 ANTENNA__1100__A2
*1144 ANTENNA__1102__B2
*1145 ANTENNA__1103__A2
*1146 ANTENNA__1105__A1
*1147 ANTENNA__1107__A1
*1148 ANTENNA__1107__B1
*1149 ANTENNA__1107__B2
*1150 ANTENNA__1111__A1
*1151 ANTENNA__1113__I
*1152 ANTENNA__1114__B
*1153 ANTENNA__1115__A2
*1154 ANTENNA__1116__A1
*1155 ANTENNA__1116__B1
*1156 ANTENNA__1116__B2
*1157 ANTENNA__1118__A1
*1158 ANTENNA__1119__B2
*1159 ANTENNA__1120__B
*1160 ANTENNA__1121__A2
*1161 ANTENNA__1124__I
*1162 ANTENNA__1125__B1
*1163 ANTENNA__1126__A1
*1164 ANTENNA__1126__B2
*1165 ANTENNA__1129__A1
*1166 ANTENNA__1131__I
*1167 ANTENNA__1134__A1
*1168 ANTENNA__1134__B2
*1169 ANTENNA__1135__A3
*1170 ANTENNA__1137__A1
*1171 ANTENNA__1138__I
*1172 ANTENNA__1139__I
*1173 ANTENNA__1142__A1
*1174 ANTENNA__1143__A3
*1175 ANTENNA__1148__A1
*1176 ANTENNA__1148__B2
*1177 ANTENNA__1149__A1
*1178 ANTENNA__1149__A3
*1179 ANTENNA__1153__B2
*1180 ANTENNA__1154__A1
*1181 ANTENNA__1154__B2
*1182 ANTENNA__1155__A1
*1183 ANTENNA__1155__A3
*1184 ANTENNA__1160__A2
*1185 ANTENNA__1162__A2
*1186 ANTENNA__1165__A2
*1187 ANTENNA__1167__A2
*1188 ANTENNA__1170__A2
*1189 ANTENNA__1171__A2
*1190 ANTENNA__1172__A2
*1191 ANTENNA__1173__A2
*1192 ANTENNA__1175__A1
*1193 ANTENNA__1175__A2
*1194 ANTENNA__1176__A2
*1195 ANTENNA__1177__A2
*1196 ANTENNA__1178__A2
*1197 ANTENNA__1181__A2
*1198 ANTENNA__1182__A2
*1199 ANTENNA__1184__I
*1200 ANTENNA__1186__A2
*1201 ANTENNA__1187__B
*1202 ANTENNA__1192__A3
*1203 ANTENNA__1193__B
*1204 ANTENNA__1198__A1
*1205 ANTENNA__1200__A1
*1206 ANTENNA__1202__A1
*1207 ANTENNA__1204__I0
*1208 ANTENNA__1205__A1
*1209 ANTENNA__1207__A1
*1210 ANTENNA__1207__A2
*1211 ANTENNA__1209__A1
*1212 ANTENNA__1210__A1
*1213 ANTENNA__1210__C
*1214 ANTENNA__1211__A1
*1215 ANTENNA__1212__A1
*1216 ANTENNA__1212__C
*1217 ANTENNA__1213__A1
*1218 ANTENNA__1214__A2
*1219 ANTENNA__1216__A1
*1220 ANTENNA__1217__B
*1221 ANTENNA__1218__A1
*1222 ANTENNA__1220__B
*1223 ANTENNA__1222__A1
*1224 ANTENNA__1226__A1
*1225 ANTENNA__1229__A1
*1226 ANTENNA__1232__A1
*1227 ANTENNA__1233__A1
*1228 ANTENNA__1239__A1
*1229 ANTENNA__1241__A1
*1230 ANTENNA__1244__A1
*1231 ANTENNA__1246__A1
*1232 ANTENNA__1248__A1
*1233 ANTENNA__1249__A1
*1234 ANTENNA__1251__B
*1235 ANTENNA__1252__A1
*1236 ANTENNA__1254__B
*1237 ANTENNA__1255__A1
*1238 ANTENNA__1255__B
*1239 ANTENNA__1257__A1
*1240 ANTENNA__1258__A1
*1241 ANTENNA__1259__B
*1242 ANTENNA__1260__I
*1243 ANTENNA__1263__I
*1244 ANTENNA__1264__I
*1245 ANTENNA__1267__I
*1246 ANTENNA__1269__A2
*1247 ANTENNA__1272__A2
*1248 ANTENNA__1278__B
*1249 ANTENNA__1280__I
*1250 ANTENNA__1285__A1
*1251 ANTENNA__1293__C
*1252 ANTENNA__1296__A2
*1253 ANTENNA__1297__B
*1254 ANTENNA__1299__I
*1255 ANTENNA__1308__B
*1256 ANTENNA__1313__A1
*1257 ANTENNA__1314__I
*1258 ANTENNA__1317__A1
*1259 ANTENNA__1322__B
*1260 ANTENNA__1333__B
*1261 ANTENNA__1334__A1
*1262 ANTENNA__1337__A1
*1263 ANTENNA__1342__B
*1264 ANTENNA__1345__I
*1265 ANTENNA__1346__I
*1266 ANTENNA__1347__B
*1267 ANTENNA__1351__B
*1268 ANTENNA__1357__A2
*1269 ANTENNA__1358__B
*1270 ANTENNA__1361__B
*1271 ANTENNA__1362__I
*1272 ANTENNA__1363__C
*1273 ANTENNA__1366__A1
*1274 ANTENNA__1372__I
*1275 ANTENNA__1382__I
*1276 ANTENNA__1384__A1
*1277 ANTENNA__1386__A1
*1278 ANTENNA__1387__B
*1279 ANTENNA__1389__A2
*1280 ANTENNA__1392__A1
*1281 ANTENNA__1392__A2
*1282 ANTENNA__1394__A2
*1283 ANTENNA__1395__A2
*1284 ANTENNA__1397__A2
*1285 ANTENNA__1399__A1
*1286 ANTENNA__1400__A2
*1287 ANTENNA__1401__A2
*1288 ANTENNA__1402__A2
*1289 ANTENNA__1405__I
*1290 ANTENNA__1406__A2
*1291 ANTENNA__1407__A2
*1292 ANTENNA__1408__A2
*1293 ANTENNA__1409__A1
*1294 ANTENNA__1412__A2
*1295 ANTENNA__1413__A2
*1296 ANTENNA__1414__A2
*1297 ANTENNA__1419__A1
*1298 ANTENNA__1421__A2
*1299 ANTENNA__1427__A1
*1300 ANTENNA__1429__A1
*1301 ANTENNA__1431__A2
*1302 ANTENNA__1441__C
*1303 ANTENNA__1444__I
*1304 ANTENNA__1446__B
*1305 ANTENNA__1449__A1
*1306 ANTENNA__1452__C
*1307 ANTENNA__1457__B
*1308 ANTENNA__1460__A1
*1309 ANTENNA__1460__A2
*1310 ANTENNA__1462__C
*1311 ANTENNA__1466__A1
*1312 ANTENNA__1467__C
*1313 ANTENNA__1471__A1
*1314 ANTENNA__1472__C
*1315 ANTENNA__1476__A1
*1316 ANTENNA__1483__A1
*1317 ANTENNA__1487__A1
*1318 ANTENNA__1491__A1
*1319 ANTENNA__1495__A1
*1320 ANTENNA__1507__A1
*1321 ANTENNA__1514__I
*1322 ANTENNA__1521__A1
*1323 ANTENNA__1529__A1
*1324 ANTENNA__1538__A1
*1325 ANTENNA__1559__A1
*1326 ANTENNA__1564__I
*1327 ANTENNA__1565__B
*1328 ANTENNA__1571__B
*1329 ANTENNA__1575__B
*1330 ANTENNA__1576__I
*1331 ANTENNA__1584__A1
*1332 ANTENNA__1585__A1
*1333 ANTENNA__1586__A1
*1334 ANTENNA__1587__A1
*1335 ANTENNA__1589__A1
*1336 ANTENNA__1596__C
*1337 ANTENNA__1599__A1
*1338 ANTENNA__1600__A1
*1339 ANTENNA__1601__A1
*1340 ANTENNA__1601__B
*1341 ANTENNA__1603__A1
*1342 ANTENNA__1605__A1
*1343 ANTENNA__1605__C
*1344 ANTENNA__1607__A1
*1345 ANTENNA__1620__A1
*1346 ANTENNA__1622__A1
*1347 ANTENNA__1624__A1
*1348 ANTENNA__1625__A1
*1349 ANTENNA__1627__A2
*1350 ANTENNA__1628__I
*1351 ANTENNA__1631__A2
*1352 ANTENNA__1634__A2
*1353 ANTENNA__1643__I
*1354 ANTENNA__1654__CLK
*1355 ANTENNA__1655__CLK
*1356 ANTENNA__1656__CLK
*1357 ANTENNA__1657__CLK
*1358 ANTENNA__1658__CLK
*1359 ANTENNA__1659__CLK
*1360 ANTENNA__1660__CLK
*1361 ANTENNA__1661__CLK
*1362 ANTENNA__1662__CLK
*1363 ANTENNA__1663__CLK
*1364 ANTENNA__1664__CLK
*1365 ANTENNA__1665__CLK
*1366 ANTENNA__1666__CLK
*1367 ANTENNA__1667__CLK
*1368 ANTENNA__1670__CLK
*1369 ANTENNA__1671__CLK
*1370 ANTENNA__1672__CLK
*1371 ANTENNA__1673__CLK
*1372 ANTENNA__1674__CLK
*1373 ANTENNA__1675__CLK
*1374 ANTENNA__1676__CLK
*1375 ANTENNA__1680__CLK
*1376 ANTENNA__1681__CLK
*1377 ANTENNA__1682__CLK
*1378 ANTENNA__1683__CLK
*1379 ANTENNA__1684__CLK
*1380 ANTENNA__1686__CLK
*1381 ANTENNA__1687__CLK
*1382 ANTENNA__1688__CLK
*1383 ANTENNA__1689__CLK
*1384 ANTENNA__1690__CLK
*1385 ANTENNA__1691__CLK
*1386 ANTENNA__1692__CLK
*1387 ANTENNA__1693__CLK
*1388 ANTENNA__1694__CLK
*1389 ANTENNA__1695__CLK
*1390 ANTENNA__1696__CLK
*1391 ANTENNA__1697__CLK
*1392 ANTENNA__1698__CLK
*1393 ANTENNA__1699__CLK
*1394 ANTENNA__1700__CLK
*1395 ANTENNA__1701__CLK
*1396 ANTENNA__1702__CLK
*1397 ANTENNA__1706__CLK
*1398 ANTENNA__1707__CLK
*1399 ANTENNA__1708__CLK
*1400 ANTENNA__1709__CLK
*1401 ANTENNA__1710__CLK
*1402 ANTENNA__1711__CLK
*1403 ANTENNA__1712__CLK
*1404 ANTENNA__1713__CLK
*1405 ANTENNA__1714__CLK
*1406 ANTENNA__1715__CLK
*1407 ANTENNA__1716__CLK
*1408 ANTENNA__1717__CLK
*1409 ANTENNA__1718__CLK
*1410 ANTENNA__1719__CLK
*1411 ANTENNA__1720__CLK
*1412 ANTENNA__1721__CLK
*1413 ANTENNA__1722__CLK
*1414 ANTENNA__1723__CLK
*1415 ANTENNA__1724__CLK
*1416 ANTENNA__1725__CLK
*1417 ANTENNA__1726__CLK
*1418 ANTENNA__1727__CLK
*1419 ANTENNA__1728__CLK
*1420 ANTENNA__1729__CLK
*1421 ANTENNA__1730__CLK
*1422 ANTENNA__1731__CLK
*1423 ANTENNA__1732__CLK
*1424 ANTENNA__1733__CLK
*1425 ANTENNA__1734__CLK
*1426 ANTENNA__1735__CLK
*1427 ANTENNA__1736__CLK
*1428 ANTENNA__1737__CLK
*1429 ANTENNA__1738__CLK
*1430 ANTENNA__1739__CLK
*1431 ANTENNA__1740__CLK
*1432 ANTENNA__1741__CLK
*1433 ANTENNA__1746__CLK
*1434 ANTENNA__1747__CLK
*1435 ANTENNA__1748__CLK
*1436 ANTENNA__1749__CLK
*1437 ANTENNA__1750__CLK
*1438 ANTENNA__1751__CLK
*1439 ANTENNA__1752__CLK
*1440 ANTENNA__1753__CLK
*1441 ANTENNA__1754__CLK
*1442 ANTENNA__1755__CLK
*1443 ANTENNA__1756__CLK
*1444 ANTENNA__1757__CLK
*1445 ANTENNA__1758__CLK
*1446 ANTENNA__1759__CLK
*1447 ANTENNA__1760__CLK
*1448 ANTENNA__1761__CLK
*1449 ANTENNA__1762__CLK
*1450 ANTENNA__1763__CLK
*1451 ANTENNA__1764__CLK
*1452 ANTENNA__1765__CLK
*1453 ANTENNA__1766__CLK
*1454 ANTENNA__1767__CLK
*1455 ANTENNA__1768__CLK
*1456 ANTENNA__1769__CLK
*1457 ANTENNA__1770__CLK
*1458 ANTENNA__1771__CLK
*1459 ANTENNA__1772__CLK
*1460 ANTENNA__1773__CLK
*1461 ANTENNA__1774__CLK
*1462 ANTENNA__1775__CLK
*1463 ANTENNA__1776__CLK
*1464 ANTENNA__1777__CLK
*1465 ANTENNA__1778__CLK
*1466 ANTENNA__1779__CLK
*1467 ANTENNA__1780__CLK
*1468 ANTENNA__1780__D
*1469 ANTENNA__1782__CLK
*1470 ANTENNA__1783__CLK
*1471 ANTENNA__1784__CLK
*1472 ANTENNA__1785__CLK
*1473 ANTENNA__1786__CLK
*1474 ANTENNA__1789__CLK
*1475 ANTENNA__1790__CLK
*1476 ANTENNA__1791__CLK
*1477 ANTENNA__1792__CLK
*1478 ANTENNA__1793__CLK
*1479 ANTENNA__1794__CLK
*1480 ANTENNA__1795__CLK
*1481 ANTENNA__1796__CLK
*1482 ANTENNA__1797__CLK
*1483 ANTENNA_clkbuf_0_wb_clk_i_I
*1484 ANTENNA_clkbuf_4_0_0_wb_clk_i_I
*1485 ANTENNA_clkbuf_4_10_0_wb_clk_i_I
*1486 ANTENNA_clkbuf_4_11_0_wb_clk_i_I
*1487 ANTENNA_clkbuf_4_12_0_wb_clk_i_I
*1488 ANTENNA_clkbuf_4_13_0_wb_clk_i_I
*1489 ANTENNA_clkbuf_4_14_0_wb_clk_i_I
*1490 ANTENNA_clkbuf_4_15_0_wb_clk_i_I
*1491 ANTENNA_clkbuf_4_1_0_wb_clk_i_I
*1492 ANTENNA_clkbuf_4_2_0_wb_clk_i_I
*1493 ANTENNA_clkbuf_4_3_0_wb_clk_i_I
*1494 ANTENNA_clkbuf_4_4_0_wb_clk_i_I
*1495 ANTENNA_clkbuf_4_5_0_wb_clk_i_I
*1496 ANTENNA_clkbuf_4_6_0_wb_clk_i_I
*1497 ANTENNA_clkbuf_4_7_0_wb_clk_i_I
*1498 ANTENNA_clkbuf_4_8_0_wb_clk_i_I
*1499 ANTENNA_clkbuf_4_9_0_wb_clk_i_I
*1500 ANTENNA_input10_I
*1501 ANTENNA_input11_I
*1502 ANTENNA_input12_I
*1503 ANTENNA_input13_I
*1504 ANTENNA_input14_I
*1505 ANTENNA_input15_I
*1506 ANTENNA_input16_I
*1507 ANTENNA_input1_I
*1508 ANTENNA_input2_I
*1509 ANTENNA_input3_I
*1510 ANTENNA_input4_I
*1511 ANTENNA_input5_I
*1512 ANTENNA_input6_I
*1513 ANTENNA_input7_I
*1514 ANTENNA_input8_I
*1515 ANTENNA_input9_I
*1516 ANTENNA_output17_I
*1517 ANTENNA_output26_I
*1518 ANTENNA_output27_I
*1519 FILLER_0_0_10
*1520 FILLER_0_0_100
*1521 FILLER_0_0_104
*1522 FILLER_0_0_142
*1523 FILLER_0_0_158
*1524 FILLER_0_0_166
*1525 FILLER_0_0_172
*1526 FILLER_0_0_177
*1527 FILLER_0_0_19
*1528 FILLER_0_0_193
*1529 FILLER_0_0_2
*1530 FILLER_0_0_201
*1531 FILLER_0_0_203
*1532 FILLER_0_0_235
*1533 FILLER_0_0_237
*1534 FILLER_0_0_240
*1535 FILLER_0_0_248
*1536 FILLER_0_0_252
*1537 FILLER_0_0_257
*1538 FILLER_0_0_265
*1539 FILLER_0_0_269
*1540 FILLER_0_0_27
*1541 FILLER_0_0_271
*1542 FILLER_0_0_274
*1543 FILLER_0_0_290
*1544 FILLER_0_0_298
*1545 FILLER_0_0_302
*1546 FILLER_0_0_31
*1547 FILLER_0_0_33
*1548 FILLER_0_0_334
*1549 FILLER_0_0_350
*1550 FILLER_0_0_358
*1551 FILLER_0_0_36
*1552 FILLER_0_0_364
*1553 FILLER_0_0_405
*1554 FILLER_0_0_407
*1555 FILLER_0_0_444
*1556 FILLER_0_0_452
*1557 FILLER_0_0_454
*1558 FILLER_0_0_96
*1559 FILLER_0_10_117
*1560 FILLER_0_10_144
*1561 FILLER_0_10_148
*1562 FILLER_0_10_164
*1563 FILLER_0_10_168
*1564 FILLER_0_10_177
*1565 FILLER_0_10_181
*1566 FILLER_0_10_189
*1567 FILLER_0_10_198
*1568 FILLER_0_10_214
*1569 FILLER_0_10_234
*1570 FILLER_0_10_238
*1571 FILLER_0_10_242
*1572 FILLER_0_10_244
*1573 FILLER_0_10_253
*1574 FILLER_0_10_261
*1575 FILLER_0_10_263
*1576 FILLER_0_10_283
*1577 FILLER_0_10_31
*1578 FILLER_0_10_317
*1579 FILLER_0_10_349
*1580 FILLER_0_10_368
*1581 FILLER_0_10_372
*1582 FILLER_0_10_376
*1583 FILLER_0_10_384
*1584 FILLER_0_10_387
*1585 FILLER_0_10_389
*1586 FILLER_0_10_428
*1587 FILLER_0_10_432
*1588 FILLER_0_10_436
*1589 FILLER_0_10_438
*1590 FILLER_0_10_443
*1591 FILLER_0_10_451
*1592 FILLER_0_10_457
*1593 FILLER_0_10_48
*1594 FILLER_0_10_64
*1595 FILLER_0_10_76
*1596 FILLER_0_10_80
*1597 FILLER_0_10_91
*1598 FILLER_0_11_104
*1599 FILLER_0_11_112
*1600 FILLER_0_11_116
*1601 FILLER_0_11_119
*1602 FILLER_0_11_136
*1603 FILLER_0_11_152
*1604 FILLER_0_11_160
*1605 FILLER_0_11_164
*1606 FILLER_0_11_173
*1607 FILLER_0_11_18
*1608 FILLER_0_11_2
*1609 FILLER_0_11_212
*1610 FILLER_0_11_218
*1611 FILLER_0_11_250
*1612 FILLER_0_11_26
*1613 FILLER_0_11_266
*1614 FILLER_0_11_276
*1615 FILLER_0_11_282
*1616 FILLER_0_11_30
*1617 FILLER_0_11_305
*1618 FILLER_0_11_315
*1619 FILLER_0_11_32
*1620 FILLER_0_11_323
*1621 FILLER_0_11_337
*1622 FILLER_0_11_341
*1623 FILLER_0_11_349
*1624 FILLER_0_11_352
*1625 FILLER_0_11_39
*1626 FILLER_0_11_392
*1627 FILLER_0_11_396
*1628 FILLER_0_11_398
*1629 FILLER_0_11_401
*1630 FILLER_0_11_417
*1631 FILLER_0_11_419
*1632 FILLER_0_11_422
*1633 FILLER_0_11_426
*1634 FILLER_0_11_435
*1635 FILLER_0_11_61
*1636 FILLER_0_11_65
*1637 FILLER_0_11_69
*1638 FILLER_0_11_72
*1639 FILLER_0_12_107
*1640 FILLER_0_12_118
*1641 FILLER_0_12_122
*1642 FILLER_0_12_13
*1643 FILLER_0_12_136
*1644 FILLER_0_12_156
*1645 FILLER_0_12_160
*1646 FILLER_0_12_168
*1647 FILLER_0_12_172
*1648 FILLER_0_12_174
*1649 FILLER_0_12_177
*1650 FILLER_0_12_193
*1651 FILLER_0_12_2
*1652 FILLER_0_12_205
*1653 FILLER_0_12_232
*1654 FILLER_0_12_236
*1655 FILLER_0_12_244
*1656 FILLER_0_12_247
*1657 FILLER_0_12_255
*1658 FILLER_0_12_259
*1659 FILLER_0_12_29
*1660 FILLER_0_12_290
*1661 FILLER_0_12_292
*1662 FILLER_0_12_299
*1663 FILLER_0_12_314
*1664 FILLER_0_12_317
*1665 FILLER_0_12_321
*1666 FILLER_0_12_33
*1667 FILLER_0_12_343
*1668 FILLER_0_12_347
*1669 FILLER_0_12_357
*1670 FILLER_0_12_361
*1671 FILLER_0_12_363
*1672 FILLER_0_12_37
*1673 FILLER_0_12_370