*SPEF "ieee 1481-1999"
*DESIGN "user_project_wrapper"
*DATE "11:11:11 Fri 11 11, 1111"
*VENDOR "OpenRCX"
*PROGRAM "Parallel Extraction"
*VERSION "1.0"
*DESIGN_FLOW "NAME_SCOPE LOCAL" "PIN_CAP NONE"
*DIVIDER /
*DELIMITER :
*BUS_DELIMITER []
*T_UNIT 1 NS
*C_UNIT 1 PF
*R_UNIT 1 OHM
*L_UNIT 1 HENRY

*NAME_MAP
*1 io_in[0]
*2 io_in[10]
*3 io_in[11]
*4 io_in[12]
*5 io_in[13]
*6 io_in[14]
*7 io_in[15]
*8 io_in[16]
*9 io_in[17]
*10 io_in[18]
*11 io_in[19]
*12 io_in[1]
*13 io_in[20]
*14 io_in[21]
*15 io_in[22]
*16 io_in[23]
*17 io_in[24]
*18 io_in[25]
*19 io_in[26]
*20 io_in[27]
*21 io_in[28]
*22 io_in[29]
*23 io_in[2]
*24 io_in[30]
*25 io_in[31]
*26 io_in[32]
*27 io_in[33]
*28 io_in[34]
*29 io_in[35]
*30 io_in[36]
*31 io_in[37]
*32 io_in[3]
*33 io_in[4]
*34 io_in[5]
*35 io_in[6]
*36 io_in[7]
*37 io_in[8]
*38 io_in[9]
*39 io_oeb[0]
*40 io_oeb[10]
*41 io_oeb[11]
*42 io_oeb[12]
*43 io_oeb[13]
*44 io_oeb[14]
*45 io_oeb[15]
*46 io_oeb[16]
*47 io_oeb[17]
*48 io_oeb[18]
*49 io_oeb[19]
*50 io_oeb[1]
*51 io_oeb[20]
*52 io_oeb[21]
*53 io_oeb[22]
*54 io_oeb[23]
*55 io_oeb[24]
*56 io_oeb[25]
*57 io_oeb[26]
*58 io_oeb[27]
*59 io_oeb[28]
*60 io_oeb[29]
*61 io_oeb[2]
*62 io_oeb[30]
*63 io_oeb[31]
*64 io_oeb[32]
*65 io_oeb[33]
*66 io_oeb[34]
*67 io_oeb[35]
*68 io_oeb[36]
*69 io_oeb[37]
*70 io_oeb[3]
*71 io_oeb[4]
*72 io_oeb[5]
*73 io_oeb[6]
*74 io_oeb[7]
*75 io_oeb[8]
*76 io_oeb[9]
*77 io_out[0]
*78 io_out[10]
*79 io_out[11]
*80 io_out[12]
*81 io_out[13]
*82 io_out[14]
*83 io_out[15]
*84 io_out[16]
*85 io_out[17]
*86 io_out[18]
*87 io_out[19]
*88 io_out[1]
*89 io_out[20]
*90 io_out[21]
*91 io_out[22]
*92 io_out[23]
*93 io_out[24]
*94 io_out[25]
*95 io_out[26]
*96 io_out[27]
*97 io_out[28]
*98 io_out[29]
*99 io_out[2]
*100 io_out[30]
*101 io_out[31]
*102 io_out[32]
*103 io_out[33]
*104 io_out[34]
*105 io_out[35]
*106 io_out[36]
*107 io_out[37]
*108 io_out[3]
*109 io_out[4]
*110 io_out[5]
*111 io_out[6]
*112 io_out[7]
*113 io_out[8]
*114 io_out[9]
*115 la_data_in[0]
*116 la_data_in[10]
*117 la_data_in[11]
*118 la_data_in[12]
*119 la_data_in[13]
*120 la_data_in[14]
*121 la_data_in[15]
*122 la_data_in[16]
*123 la_data_in[17]
*124 la_data_in[18]
*125 la_data_in[19]
*126 la_data_in[1]
*127 la_data_in[20]
*128 la_data_in[21]
*129 la_data_in[22]
*130 la_data_in[23]
*131 la_data_in[24]
*132 la_data_in[25]
*133 la_data_in[26]
*134 la_data_in[27]
*135 la_data_in[28]
*136 la_data_in[29]
*137 la_data_in[2]
*138 la_data_in[30]
*139 la_data_in[31]
*140 la_data_in[32]
*141 la_data_in[33]
*142 la_data_in[34]
*143 la_data_in[35]
*144 la_data_in[36]
*145 la_data_in[37]
*146 la_data_in[38]
*147 la_data_in[39]
*148 la_data_in[3]
*149 la_data_in[40]
*150 la_data_in[41]
*151 la_data_in[42]
*152 la_data_in[43]
*153 la_data_in[44]
*154 la_data_in[45]
*155 la_data_in[46]
*156 la_data_in[47]
*157 la_data_in[48]
*158 la_data_in[49]
*159 la_data_in[4]
*160 la_data_in[50]
*161 la_data_in[51]
*162 la_data_in[52]
*163 la_data_in[53]
*164 la_data_in[54]
*165 la_data_in[55]
*166 la_data_in[56]
*167 la_data_in[57]
*168 la_data_in[58]
*169 la_data_in[59]
*170 la_data_in[5]
*171 la_data_in[60]
*172 la_data_in[61]
*173 la_data_in[62]
*174 la_data_in[63]
*175 la_data_in[6]
*176 la_data_in[7]
*177 la_data_in[8]
*178 la_data_in[9]
*179 la_data_out[0]
*180 la_data_out[10]
*181 la_data_out[11]
*182 la_data_out[12]
*183 la_data_out[13]
*184 la_data_out[14]
*185 la_data_out[15]
*186 la_data_out[16]
*187 la_data_out[17]
*188 la_data_out[18]
*189 la_data_out[19]
*190 la_data_out[1]
*191 la_data_out[20]
*192 la_data_out[21]
*193 la_data_out[22]
*194 la_data_out[23]
*195 la_data_out[24]
*196 la_data_out[25]
*197 la_data_out[26]
*198 la_data_out[27]
*199 la_data_out[28]
*200 la_data_out[29]
*201 la_data_out[2]
*202 la_data_out[30]
*203 la_data_out[31]
*204 la_data_out[32]
*205 la_data_out[33]
*206 la_data_out[34]
*207 la_data_out[35]
*208 la_data_out[36]
*209 la_data_out[37]
*210 la_data_out[38]
*211 la_data_out[39]
*212 la_data_out[3]
*213 la_data_out[40]
*214 la_data_out[41]
*215 la_data_out[42]
*216 la_data_out[43]
*217 la_data_out[44]
*218 la_data_out[45]
*219 la_data_out[46]
*220 la_data_out[47]
*221 la_data_out[48]
*222 la_data_out[49]
*223 la_data_out[4]
*224 la_data_out[50]
*225 la_data_out[51]
*226 la_data_out[52]
*227 la_data_out[53]
*228 la_data_out[54]
*229 la_data_out[55]
*230 la_data_out[56]
*231 la_data_out[57]
*232 la_data_out[58]
*233 la_data_out[59]
*234 la_data_out[5]
*235 la_data_out[60]
*236 la_data_out[61]
*237 la_data_out[62]
*238 la_data_out[63]
*239 la_data_out[6]
*240 la_data_out[7]
*241 la_data_out[8]
*242 la_data_out[9]
*243 la_oenb[0]
*244 la_oenb[10]
*245 la_oenb[11]
*246 la_oenb[12]
*247 la_oenb[13]
*248 la_oenb[14]
*249 la_oenb[15]
*250 la_oenb[16]
*251 la_oenb[17]
*252 la_oenb[18]
*253 la_oenb[19]
*254 la_oenb[1]
*255 la_oenb[20]
*256 la_oenb[21]
*257 la_oenb[22]
*258 la_oenb[23]
*259 la_oenb[24]
*260 la_oenb[25]
*261 la_oenb[26]
*262 la_oenb[27]
*263 la_oenb[28]
*264 la_oenb[29]
*265 la_oenb[2]
*266 la_oenb[30]
*267 la_oenb[31]
*268 la_oenb[32]
*269 la_oenb[33]
*270 la_oenb[34]
*271 la_oenb[35]
*272 la_oenb[36]
*273 la_oenb[37]
*274 la_oenb[38]
*275 la_oenb[39]
*276 la_oenb[3]
*277 la_oenb[40]
*278 la_oenb[41]
*279 la_oenb[42]
*280 la_oenb[43]
*281 la_oenb[44]
*282 la_oenb[45]
*283 la_oenb[46]
*284 la_oenb[47]
*285 la_oenb[48]
*286 la_oenb[49]
*287 la_oenb[4]
*288 la_oenb[50]
*289 la_oenb[51]
*290 la_oenb[52]
*291 la_oenb[53]
*292 la_oenb[54]
*293 la_oenb[55]
*294 la_oenb[56]
*295 la_oenb[57]
*296 la_oenb[58]
*297 la_oenb[59]
*298 la_oenb[5]
*299 la_oenb[60]
*300 la_oenb[61]
*301 la_oenb[62]
*302 la_oenb[63]
*303 la_oenb[6]
*304 la_oenb[7]
*305 la_oenb[8]
*306 la_oenb[9]
*307 user_clock2
*308 user_irq[0]
*309 user_irq[1]
*310 user_irq[2]
*313 wb_clk_i
*314 wb_rst_i
*315 wbs_ack_o
*316 wbs_adr_i[0]
*317 wbs_adr_i[10]
*318 wbs_adr_i[11]
*319 wbs_adr_i[12]
*320 wbs_adr_i[13]
*321 wbs_adr_i[14]
*322 wbs_adr_i[15]
*323 wbs_adr_i[16]
*324 wbs_adr_i[17]
*325 wbs_adr_i[18]
*326 wbs_adr_i[19]
*327 wbs_adr_i[1]
*328 wbs_adr_i[20]
*329 wbs_adr_i[21]
*330 wbs_adr_i[22]
*331 wbs_adr_i[23]
*332 wbs_adr_i[24]
*333 wbs_adr_i[25]
*334 wbs_adr_i[26]
*335 wbs_adr_i[27]
*336 wbs_adr_i[28]
*337 wbs_adr_i[29]
*338 wbs_adr_i[2]
*339 wbs_adr_i[30]
*340 wbs_adr_i[31]
*341 wbs_adr_i[3]
*342 wbs_adr_i[4]
*343 wbs_adr_i[5]
*344 wbs_adr_i[6]
*345 wbs_adr_i[7]
*346 wbs_adr_i[8]
*347 wbs_adr_i[9]
*348 wbs_cyc_i
*349 wbs_dat_i[0]
*350 wbs_dat_i[10]
*351 wbs_dat_i[11]
*352 wbs_dat_i[12]
*353 wbs_dat_i[13]
*354 wbs_dat_i[14]
*355 wbs_dat_i[15]
*356 wbs_dat_i[16]
*357 wbs_dat_i[17]
*358 wbs_dat_i[18]
*359 wbs_dat_i[19]
*360 wbs_dat_i[1]
*361 wbs_dat_i[20]
*362 wbs_dat_i[21]
*363 wbs_dat_i[22]
*364 wbs_dat_i[23]
*365 wbs_dat_i[24]
*366 wbs_dat_i[25]
*367 wbs_dat_i[26]
*368 wbs_dat_i[27]
*369 wbs_dat_i[28]
*370 wbs_dat_i[29]
*371 wbs_dat_i[2]
*372 wbs_dat_i[30]
*373 wbs_dat_i[31]
*374 wbs_dat_i[3]
*375 wbs_dat_i[4]
*376 wbs_dat_i[5]
*377 wbs_dat_i[6]
*378 wbs_dat_i[7]
*379 wbs_dat_i[8]
*380 wbs_dat_i[9]
*381 wbs_dat_o[0]
*382 wbs_dat_o[10]
*383 wbs_dat_o[11]
*384 wbs_dat_o[12]
*385 wbs_dat_o[13]
*386 wbs_dat_o[14]
*387 wbs_dat_o[15]
*388 wbs_dat_o[16]
*389 wbs_dat_o[17]
*390 wbs_dat_o[18]
*391 wbs_dat_o[19]
*392 wbs_dat_o[1]
*393 wbs_dat_o[20]
*394 wbs_dat_o[21]
*395 wbs_dat_o[22]
*396 wbs_dat_o[23]
*397 wbs_dat_o[24]
*398 wbs_dat_o[25]
*399 wbs_dat_o[26]
*400 wbs_dat_o[27]
*401 wbs_dat_o[28]
*402 wbs_dat_o[29]
*403 wbs_dat_o[2]
*404 wbs_dat_o[30]
*405 wbs_dat_o[31]
*406 wbs_dat_o[3]
*407 wbs_dat_o[4]
*408 wbs_dat_o[5]
*409 wbs_dat_o[6]
*410 wbs_dat_o[7]
*411 wbs_dat_o[8]
*412 wbs_dat_o[9]
*413 wbs_sel_i[0]
*414 wbs_sel_i[1]
*415 wbs_sel_i[2]
*416 wbs_sel_i[3]
*417 wbs_stb_i
*418 wbs_we_i
*419 A_all\[0\]
*420 A_all\[1\]
*421 A_all\[2\]
*422 A_all\[3\]
*423 A_all\[4\]
*424 A_all\[5\]
*425 A_all\[6\]
*426 A_all\[7\]
*427 A_all\[8\]
*428 CEN_all
*429 DAC_clk
*430 DAC_d1
*431 DAC_d2
*432 DAC_le
*433 D_all\[0\]
*434 D_all\[1\]
*435 D_all\[2\]
*436 D_all\[3\]
*437 D_all\[4\]
*438 D_all\[5\]
*439 D_all\[6\]
*440 D_all\[7\]
*441 GWEN_0
*442 GWEN_1
*443 GWEN_2
*444 GWEN_3
*445 GWEN_4
*446 GWEN_5
*447 GWEN_6
*448 GWEN_7
*449 Q0\[0\]
*450 Q0\[1\]
*451 Q0\[2\]
*452 Q0\[3\]
*453 Q0\[4\]
*454 Q0\[5\]
*455 Q0\[6\]
*456 Q0\[7\]
*457 Q1\[0\]
*458 Q1\[1\]
*459 Q1\[2\]
*460 Q1\[3\]
*461 Q1\[4\]
*462 Q1\[5\]
*463 Q1\[6\]
*464 Q1\[7\]
*465 Q2\[0\]
*466 Q2\[1\]
*467 Q2\[2\]
*468 Q2\[3\]
*469 Q2\[4\]
*470 Q2\[5\]
*471 Q2\[6\]
*472 Q2\[7\]
*473 Q3\[0\]
*474 Q3\[1\]
*475 Q3\[2\]
*476 Q3\[3\]
*477 Q3\[4\]
*478 Q3\[5\]
*479 Q3\[6\]
*480 Q3\[7\]
*481 Q4\[0\]
*482 Q4\[1\]
*483 Q4\[2\]
*484 Q4\[3\]
*485 Q4\[4\]
*486 Q4\[5\]
*487 Q4\[6\]
*488 Q4\[7\]
*489 Q5\[0\]
*490 Q5\[1\]
*491 Q5\[2\]
*492 Q5\[3\]
*493 Q5\[4\]
*494 Q5\[5\]
*495 Q5\[6\]
*496 Q5\[7\]
*497 Q6\[0\]
*498 Q6\[1\]
*499 Q6\[2\]
*500 Q6\[3\]
*501 Q6\[4\]
*502 Q6\[5\]
*503 Q6\[6\]
*504 Q6\[7\]
*505 Q7\[0\]
*506 Q7\[1\]
*507 Q7\[2\]
*508 Q7\[3\]
*509 Q7\[4\]
*510 Q7\[5\]
*511 Q7\[6\]
*512 Q7\[7\]
*513 RAM_end_addr\[0\]
*514 RAM_end_addr\[10\]
*515 RAM_end_addr\[11\]
*516 RAM_end_addr\[12\]
*517 RAM_end_addr\[13\]
*518 RAM_end_addr\[14\]
*519 RAM_end_addr\[15\]
*520 RAM_end_addr\[1\]
*521 RAM_end_addr\[2\]
*522 RAM_end_addr\[3\]
*523 RAM_end_addr\[4\]
*524 RAM_end_addr\[5\]
*525 RAM_end_addr\[6\]
*526 RAM_end_addr\[7\]
*527 RAM_end_addr\[8\]
*528 RAM_end_addr\[9\]
*529 RAM_start_addr\[0\]
*530 RAM_start_addr\[10\]
*531 RAM_start_addr\[11\]
*532 RAM_start_addr\[12\]
*533 RAM_start_addr\[13\]
*534 RAM_start_addr\[14\]
*535 RAM_start_addr\[15\]
*536 RAM_start_addr\[1\]
*537 RAM_start_addr\[2\]
*538 RAM_start_addr\[3\]
*539 RAM_start_addr\[4\]
*540 RAM_start_addr\[5\]
*541 RAM_start_addr\[6\]
*542 RAM_start_addr\[7\]
*543 RAM_start_addr\[8\]
*544 RAM_start_addr\[9\]
*545 RXD
*546 TXD
*547 WEN_all\[0\]
*548 WEN_all\[1\]
*549 WEN_all\[2\]
*550 WEN_all\[3\]
*551 WEN_all\[4\]
*552 WEN_all\[5\]
*553 WEN_all\[6\]
*554 WEN_all\[7\]
*555 WEb_raw
*556 boot_rom_en
*557 bus_addr\[0\]
*558 bus_addr\[1\]
*559 bus_addr\[2\]
*560 bus_addr\[3\]
*561 bus_addr\[4\]
*562 bus_addr\[5\]
*563 bus_cyc
*564 bus_data_gpios\[0\]
*565 bus_data_gpios\[1\]
*566 bus_data_gpios\[2\]
*567 bus_data_gpios\[3\]
*568 bus_data_gpios\[4\]
*569 bus_data_gpios\[5\]
*570 bus_data_gpios\[6\]
*571 bus_data_gpios\[7\]
*572 bus_data_out\[0\]
*573 bus_data_out\[1\]
*574 bus_data_out\[2\]
*575 bus_data_out\[3\]
*576 bus_data_out\[4\]
*577 bus_data_out\[5\]
*578 bus_data_out\[6\]
*579 bus_data_out\[7\]
*580 bus_data_serial_ports\[0\]
*581 bus_data_serial_ports\[1\]
*582 bus_data_serial_ports\[2\]
*583 bus_data_serial_ports\[3\]
*584 bus_data_serial_ports\[4\]
*585 bus_data_serial_ports\[5\]
*586 bus_data_serial_ports\[6\]
*587 bus_data_serial_ports\[7\]
*588 bus_data_sid\[0\]
*589 bus_data_sid\[1\]
*590 bus_data_sid\[2\]
*591 bus_data_sid\[3\]
*592 bus_data_sid\[4\]
*593 bus_data_sid\[5\]
*594 bus_data_sid\[6\]
*595 bus_data_sid\[7\]
*596 bus_data_timers\[0\]
*597 bus_data_timers\[1\]
*598 bus_data_timers\[2\]
*599 bus_data_timers\[3\]
*600 bus_data_timers\[4\]
*601 bus_data_timers\[5\]
*602 bus_data_timers\[6\]
*603 bus_data_timers\[7\]
*604 bus_we_gpios
*605 bus_we_serial_ports
*606 bus_we_sid
*607 bus_we_timers
*608 cs_port\[0\]
*609 cs_port\[1\]
*610 cs_port\[2\]
*611 irq0
*612 irq1
*613 irq2
*614 irq3
*615 irq5
*616 irq6
*617 irq7
*618 last_addr\[0\]
*619 last_addr\[10\]
*620 last_addr\[11\]
*621 last_addr\[12\]
*622 last_addr\[13\]
*623 last_addr\[14\]
*624 last_addr\[15\]
*625 last_addr\[1\]
*626 last_addr\[2\]
*627 last_addr\[3\]
*628 last_addr\[4\]
*629 last_addr\[5\]
*630 last_addr\[6\]
*631 last_addr\[7\]
*632 last_addr\[8\]
*633 last_addr\[9\]
*634 le_hi_act
*635 le_lo_act
*636 pwm0
*637 pwm1
*638 pwm2
*639 ram_bus_in\[0\]
*640 ram_bus_in\[1\]
*641 ram_bus_in\[2\]
*642 ram_bus_in\[3\]
*643 ram_bus_in\[4\]
*644 ram_bus_in\[5\]
*645 ram_bus_in\[6\]
*646 ram_bus_in\[7\]
*647 ram_enabled
*648 requested_addr\[0\]
*649 requested_addr\[10\]
*650 requested_addr\[11\]
*651 requested_addr\[12\]
*652 requested_addr\[13\]
*653 requested_addr\[14\]
*654 requested_addr\[15\]
*655 requested_addr\[1\]
*656 requested_addr\[2\]
*657 requested_addr\[3\]
*658 requested_addr\[4\]
*659 requested_addr\[5\]
*660 requested_addr\[6\]
*661 requested_addr\[7\]
*662 requested_addr\[8\]
*663 requested_addr\[9\]
*664 reset
*665 rom_bus_in\[0\]
*666 rom_bus_in\[1\]
*667 rom_bus_in\[2\]
*668 rom_bus_in\[3\]
*669 rom_bus_in\[4\]
*670 rom_bus_in\[5\]
*671 rom_bus_in\[6\]
*672 rom_bus_in\[7\]
*673 rom_bus_out\[0\]
*674 rom_bus_out\[1\]
*675 rom_bus_out\[2\]
*676 rom_bus_out\[3\]
*677 rom_bus_out\[4\]
*678 rom_bus_out\[5\]
*679 rom_bus_out\[6\]
*680 rom_bus_out\[7\]
*681 tmr0_clk
*682 tmr0_o
*683 tmr1_clk
*684 tmr1_o
*685 avali_logo
*686 boot_rom
*687 gpios
*688 ram_controller
*689 serial_ports
*690 sid
*691 sram0
*692 sram1
*693 sram2
*694 sram3
*695 sram4
*696 sram5
*697 sram6
*698 sram7
*699 timers
*700 wrapped_as2650

*PORTS
io_in[0] I
io_in[10] I
io_in[11] I
io_in[12] I
io_in[13] I
io_in[14] I
io_in[15] I
io_in[16] I
io_in[17] I
io_in[18] I
io_in[19] I
io_in[1] I
io_in[20] I
io_in[21] I
io_in[22] I
io_in[23] I
io_in[24] I
io_in[25] I
io_in[26] I
io_in[27] I
io_in[28] I
io_in[29] I
io_in[2] I
io_in[30] I
io_in[31] I
io_in[32] I
io_in[33] I
io_in[34] I
io_in[35] I
io_in[36] I
io_in[37] I
io_in[3] I
io_in[4] I
io_in[5] I
io_in[6] I
io_in[7] I
io_in[8] I
io_in[9] I
io_oeb[0] O
io_oeb[10] O
io_oeb[11] O
io_oeb[12] O
io_oeb[13] O
io_oeb[14] O
io_oeb[15] O
io_oeb[16] O
io_oeb[17] O
io_oeb[18] O
io_oeb[19] O
io_oeb[1] O
io_oeb[20] O
io_oeb[21] O
io_oeb[22] O
io_oeb[23] O
io_oeb[24] O
io_oeb[25] O
io_oeb[26] O
io_oeb[27] O
io_oeb[28] O
io_oeb[29] O
io_oeb[2] O
io_oeb[30] O
io_oeb[31] O
io_oeb[32] O
io_oeb[33] O
io_oeb[34] O
io_oeb[35] O
io_oeb[36] O
io_oeb[37] O
io_oeb[3] O
io_oeb[4] O
io_oeb[5] O
io_oeb[6] O
io_oeb[7] O
io_oeb[8] O
io_oeb[9] O
io_out[0] O
io_out[10] O
io_out[11] O
io_out[12] O
io_out[13] O
io_out[14] O
io_out[15] O
io_out[16] O
io_out[17] O
io_out[18] O
io_out[19] O
io_out[1] O
io_out[20] O
io_out[21] O
io_out[22] O
io_out[23] O
io_out[24] O
io_out[25] O
io_out[26] O
io_out[27] O
io_out[28] O
io_out[29] O
io_out[2] O
io_out[30] O
io_out[31] O
io_out[32] O
io_out[33] O
io_out[34] O
io_out[35] O
io_out[36] O
io_out[37] O
io_out[3] O
io_out[4] O
io_out[5] O
io_out[6] O
io_out[7] O
io_out[8] O
io_out[9] O
la_data_in[0] I
la_data_in[10] I
la_data_in[11] I
la_data_in[12] I
la_data_in[13] I
la_data_in[14] I
la_data_in[15] I
la_data_in[16] I
la_data_in[17] I
la_data_in[18] I
la_data_in[19] I
la_data_in[1] I
la_data_in[20] I
la_data_in[21] I
la_data_in[22] I
la_data_in[23] I
la_data_in[24] I
la_data_in[25] I
la_data_in[26] I
la_data_in[27] I
la_data_in[28] I
la_data_in[29] I
la_data_in[2] I
la_data_in[30] I
la_data_in[31] I
la_data_in[32] I
la_data_in[33] I
la_data_in[34] I
la_data_in[35] I
la_data_in[36] I
la_data_in[37] I
la_data_in[38] I
la_data_in[39] I
la_data_in[3] I
la_data_in[40] I
la_data_in[41] I
la_data_in[42] I
la_data_in[43] I
la_data_in[44] I
la_data_in[45] I
la_data_in[46] I
la_data_in[47] I
la_data_in[48] I
la_data_in[49] I
la_data_in[4] I
la_data_in[50] I
la_data_in[51] I
la_data_in[52] I
la_data_in[53] I
la_data_in[54] I
la_data_in[55] I
la_data_in[56] I
la_data_in[57] I
la_data_in[58] I
la_data_in[59] I
la_data_in[5] I
la_data_in[60] I
la_data_in[61] I
la_data_in[62] I
la_data_in[63] I
la_data_in[6] I
la_data_in[7] I
la_data_in[8] I
la_data_in[9] I
la_data_out[0] O
la_data_out[10] O
la_data_out[11] O
la_data_out[12] O
la_data_out[13] O
la_data_out[14] O
la_data_out[15] O
la_data_out[16] O
la_data_out[17] O
la_data_out[18] O
la_data_out[19] O
la_data_out[1] O
la_data_out[20] O
la_data_out[21] O
la_data_out[22] O
la_data_out[23] O
la_data_out[24] O
la_data_out[25] O
la_data_out[26] O
la_data_out[27] O
la_data_out[28] O
la_data_out[29] O
la_data_out[2] O
la_data_out[30] O
la_data_out[31] O
la_data_out[32] O
la_data_out[33] O
la_data_out[34] O
la_data_out[35] O
la_data_out[36] O
la_data_out[37] O
la_data_out[38] O
la_data_out[39] O
la_data_out[3] O
la_data_out[40] O
la_data_out[41] O
la_data_out[42] O
la_data_out[43] O
la_data_out[44] O
la_data_out[45] O
la_data_out[46] O
la_data_out[47] O
la_data_out[48] O
la_data_out[49] O
la_data_out[4] O
la_data_out[50] O
la_data_out[51] O
la_data_out[52] O
la_data_out[53] O
la_data_out[54] O
la_data_out[55] O
la_data_out[56] O
la_data_out[57] O
la_data_out[58] O
la_data_out[59] O
la_data_out[5] O
la_data_out[60] O
la_data_out[61] O
la_data_out[62] O
la_data_out[63] O
la_data_out[6] O
la_data_out[7] O
la_data_out[8] O
la_data_out[9] O
la_oenb[0] I
la_oenb[10] I
la_oenb[11] I
la_oenb[12] I
la_oenb[13] I
la_oenb[14] I
la_oenb[15] I
la_oenb[16] I
la_oenb[17] I
la_oenb[18] I
la_oenb[19] I
la_oenb[1] I
la_oenb[20] I
la_oenb[21] I
la_oenb[22] I
la_oenb[23] I
la_oenb[24] I
la_oenb[25] I
la_oenb[26] I
la_oenb[27] I
la_oenb[28] I
la_oenb[29] I
la_oenb[2] I
la_oenb[30] I
la_oenb[31] I
la_oenb[32] I
la_oenb[33] I
la_oenb[34] I
la_oenb[35] I
la_oenb[36] I
la_oenb[37] I
la_oenb[38] I
la_oenb[39] I
la_oenb[3] I
la_oenb[40] I
la_oenb[41] I
la_oenb[42] I
la_oenb[43] I
la_oenb[44] I
la_oenb[45] I
la_oenb[46] I
la_oenb[47] I
la_oenb[48] I
la_oenb[49] I
la_oenb[4] I
la_oenb[50] I
la_oenb[51] I
la_oenb[52] I
la_oenb[53] I
la_oenb[54] I
la_oenb[55] I
la_oenb[56] I
la_oenb[57] I
la_oenb[58] I
la_oenb[59] I
la_oenb[5] I
la_oenb[60] I
la_oenb[61] I
la_oenb[62] I
la_oenb[63] I
la_oenb[6] I
la_oenb[7] I
la_oenb[8] I
la_oenb[9] I
user_clock2 I
user_irq[0] O
user_irq[1] O
user_irq[2] O
wb_clk_i I
wb_rst_i I
wbs_ack_o O
wbs_adr_i[0] I
wbs_adr_i[10] I
wbs_adr_i[11] I
wbs_adr_i[12] I
wbs_adr_i[13] I
wbs_adr_i[14] I
wbs_adr_i[15] I
wbs_adr_i[16] I
wbs_adr_i[17] I
wbs_adr_i[18] I
wbs_adr_i[19] I
wbs_adr_i[1] I
wbs_adr_i[20] I
wbs_adr_i[21] I
wbs_adr_i[22] I
wbs_adr_i[23] I
wbs_adr_i[24] I
wbs_adr_i[25] I
wbs_adr_i[26] I
wbs_adr_i[27] I
wbs_adr_i[28] I
wbs_adr_i[29] I
wbs_adr_i[2] I
wbs_adr_i[30] I
wbs_adr_i[31] I
wbs_adr_i[3] I
wbs_adr_i[4] I
wbs_adr_i[5] I
wbs_adr_i[6] I
wbs_adr_i[7] I
wbs_adr_i[8] I
wbs_adr_i[9] I
wbs_cyc_i I
wbs_dat_i[0] I
wbs_dat_i[10] I
wbs_dat_i[11] I
wbs_dat_i[12] I
wbs_dat_i[13] I
wbs_dat_i[14] I
wbs_dat_i[15] I
wbs_dat_i[16] I
wbs_dat_i[17] I
wbs_dat_i[18] I
wbs_dat_i[19] I
wbs_dat_i[1] I
wbs_dat_i[20] I
wbs_dat_i[21] I
wbs_dat_i[22] I
wbs_dat_i[23] I
wbs_dat_i[24] I
wbs_dat_i[25] I
wbs_dat_i[26] I
wbs_dat_i[27] I
wbs_dat_i[28] I
wbs_dat_i[29] I
wbs_dat_i[2] I
wbs_dat_i[30] I
wbs_dat_i[31] I
wbs_dat_i[3] I
wbs_dat_i[4] I
wbs_dat_i[5] I
wbs_dat_i[6] I
wbs_dat_i[7] I
wbs_dat_i[8] I
wbs_dat_i[9] I
wbs_dat_o[0] O
wbs_dat_o[10] O
wbs_dat_o[11] O
wbs_dat_o[12] O
wbs_dat_o[13] O
wbs_dat_o[14] O
wbs_dat_o[15] O
wbs_dat_o[16] O
wbs_dat_o[17] O
wbs_dat_o[18] O
wbs_dat_o[19] O
wbs_dat_o[1] O
wbs_dat_o[20] O
wbs_dat_o[21] O
wbs_dat_o[22] O
wbs_dat_o[23] O
wbs_dat_o[24] O
wbs_dat_o[25] O
wbs_dat_o[26] O
wbs_dat_o[27] O
wbs_dat_o[28] O
wbs_dat_o[29] O
wbs_dat_o[2] O
wbs_dat_o[30] O
wbs_dat_o[31] O
wbs_dat_o[3] O
wbs_dat_o[4] O
wbs_dat_o[5] O
wbs_dat_o[6] O
wbs_dat_o[7] O
wbs_dat_o[8] O
wbs_dat_o[9] O
wbs_sel_i[0] I
wbs_sel_i[1] I
wbs_sel_i[2] I
wbs_sel_i[3] I
wbs_stb_i I
wbs_we_i I

*D_NET *1 0.845595
*CONN
*P io_in[0] I
*I *700:io_in[0] I *D wrapped_as2650
*CAP
1 io_in[0] 0.00119074
2 *700:io_in[0] 0.000625273
3 *1:21 0.0236574
4 *1:19 0.0230321
5 *1:17 0.0288767
6 *1:15 0.0288767
7 *1:13 0.0579959
8 *1:11 0.0579959
9 *1:9 0.0282822
10 *1:7 0.0294729
11 *1:9 io_out[3] 0.000975775
12 *1:9 *12:9 0.0261133
13 *1:9 *23:9 0.0011139
14 *1:9 *32:9 0.000689556
15 *1:9 *34:11 0.000214961
16 *1:9 *50:25 0.00119705
17 *1:9 *77:25 0.0128471
18 *1:9 *88:25 0.0670919
19 *1:9 *99:17 0.00325091
20 *1:9 *109:26 0.0335268
21 *1:13 *688:Q7[6] 0.00228404
22 *1:13 *110:13 0
23 *1:17 *189:9 0.0784125
24 *1:17 *514:17 0.000858292
25 *1:17 *590:10 0.00189418
26 *1:17 *616:13 0.00600074
27 *1:17 *618:13 0.0190138
28 *1:17 *628:15 2.35088e-05
29 *1:17 *671:19 0.0645708
30 *1:21 *12:21 0.198631
31 *1:21 *33:21 0.0337629
32 *1:21 *35:21 0.0131163
*RES
1 io_in[0] *1:7 14.12 
2 *1:7 *1:9 402.833 
3 *1:9 *1:11 4.5 
4 *1:11 *1:13 237.854 
5 *1:13 *1:15 4.5 
6 *1:15 *1:17 423.31 
7 *1:17 *1:19 4.5 
8 *1:19 *1:21 178.965 
9 *1:21 *700:io_in[0] 18.3026 
*END

*D_NET *2 0.818602
*CONN
*P io_in[10] I
*I *700:io_in[10] I *D wrapped_as2650
*CAP
1 io_in[10] 0.00254471
2 *700:io_in[10] 0.000703088
3 *2:21 0.00263237
4 *2:19 0.00192928
5 *2:17 0.00825568
6 *2:15 0.00825568
7 *2:13 0.108841
8 *2:11 0.111385
9 *2:11 io_oeb[9] 0.00201345
10 *2:11 *78:14 0.0118905
11 *2:13 *700:bus_in_gpios[1] 0.0272627
12 *2:13 *600:13 0.233471
13 *2:13 *601:13 0
14 *2:17 *34:17 0.0454933
15 *2:17 *649:9 0.00295263
16 *2:17 *650:9 0.00524146
17 *2:17 *658:9 0.00264663
18 *2:17 *660:17 0.00156025
19 *2:21 *5:23 0.0139871
20 *2:21 *23:21 0.012659
21 *2:21 *32:21 0.00189601
22 *2:21 *37:21 0.127313
23 *2:21 *616:17 0.085668
*RES
1 io_in[10] *2:11 47.7437 
2 *2:11 *2:13 247.565 
3 *2:13 *2:15 4.5 
4 *2:15 *2:17 120.644 
5 *2:17 *2:19 4.5 
6 *2:19 *2:21 320.216 
7 *2:21 *700:io_in[10] 9.336 
*END

*D_NET *3 0.638829
*CONN
*P io_in[11] I
*I *700:io_in[11] I *D wrapped_as2650
*CAP
1 io_in[11] 0.0248674
2 *700:io_in[11] 0
3 *3:21 0.00253258
4 *3:19 0.00253258
5 *3:17 0.00592443
6 *3:15 0.00592443
7 *3:13 0.0044126
8 *3:11 0.0044126
9 *3:9 0.0053691
10 *3:7 0.0053691
11 *3:5 0.0248674
12 *3:5 *89:9 0
13 *3:9 *21:27 0
14 *3:9 *25:17 0.000207315
15 *3:9 *563:45 0.0305864
16 *3:13 *21:21 6.22441e-06
17 *3:13 *41:26 0.108267
18 *3:13 *41:30 0.00629158
19 *3:13 *546:17 0.00094412
20 *3:13 *558:20 0.115489
21 *3:13 *558:40 0.00153467
22 *3:13 *564:11 0.000281254
23 *3:13 *603:18 0.000622628
24 *3:17 *19:17 0.000134199
25 *3:17 *20:17 0.00668546
26 *3:17 *21:17 0.00337585
27 *3:17 *57:13 1.12604e-05
28 *3:17 *546:13 0.00518948
29 *3:21 *19:13 0.139827
30 *3:21 *34:21 0.124727
31 *3:21 *558:12 0.00585815
32 *3:21 *562:10 0.00257893
*RES
1 io_in[11] *3:5 215.332 
2 *3:5 *3:7 4.5 
3 *3:7 *3:9 79.56 
4 *3:9 *3:11 4.5 
5 *3:11 *3:13 332.488 
6 *3:13 *3:15 4.5 
7 *3:15 *3:17 91.208 
8 *3:17 *3:19 4.5 
9 *3:19 *3:21 351.832 
10 *3:21 *700:io_in[11] 4.5 
*END

*D_NET *4 0.630225
*CONN
*P io_in[12] I
*I *700:io_in[12] I *D wrapped_as2650
*CAP
1 io_in[12] 0.00120019
2 *700:io_in[12] 0
3 *4:29 0.00480868
4 *4:27 0.00480868
5 *4:25 0.00646041
6 *4:23 0.00646041
7 *4:21 0.0224555
8 *4:19 0.0224555
9 *4:17 0.0072223
10 *4:15 0.0072223
11 *4:13 0.00647758
12 *4:11 0.00647758
13 *4:9 0.00718103
14 *4:7 0.00838122
15 *4:9 *80:33 0.00513913
16 *4:13 *41:42 0.0796307
17 *4:13 *682:19 0.0371992
18 *4:17 *687:io_in[0] 0.000885718
19 *4:17 *24:25 0.000162212
20 *4:17 *612:13 0.0358772
21 *4:21 *687:data_in[6] 0.00079445
22 *4:21 *24:21 0.0151775
23 *4:21 *96:14 0.0142523
24 *4:21 *97:14 0.0114545
25 *4:21 *98:14 0.0143782
26 *4:21 *562:18 0.0113393
27 *4:21 *607:5 0.00862628
28 *4:21 *613:17 0
29 *4:21 *664:54 0.0325257
30 *4:25 *12:17 0.00497514
31 *4:25 *559:17 0.00265052
32 *4:25 *667:19 0.0262112
33 *4:29 *20:13 0.132797
34 *4:29 *555:9 0.0135357
35 *4:29 *558:12 0.00393436
36 *4:29 *559:13 5.70182e-05
37 *4:29 *563:6 0.0670105
*RES
1 io_in[12] *4:7 14.12 
2 *4:7 *4:9 60.216 
3 *4:9 *4:11 4.5 
4 *4:11 *4:13 199.784 
5 *4:13 *4:15 4.5 
6 *4:15 *4:17 97.5111 
7 *4:17 *4:19 4.5 
8 *4:19 *4:21 149.475 
9 *4:21 *4:23 4.5 
10 *4:23 *4:25 96.2631 
11 *4:25 *4:27 4.5 
12 *4:27 *4:29 333.944 
13 *4:29 *700:io_in[12] 4.5 
*END

*D_NET *5 0.388092
*CONN
*P io_in[13] I
*I *700:io_in[13] I *D wrapped_as2650
*CAP
1 io_in[13] 0.00120019
2 *700:io_in[13] 0.000771951
3 *5:23 0.00250322
4 *5:21 0.00173127
5 *5:19 0.021051
6 *5:17 0.0210992
7 *5:13 0.0620236
8 *5:11 0.0672868
9 *5:7 0.00651158
10 *5:11 *42:53 0.00381406
11 *5:13 *573:31 0.101114
12 *5:13 *576:31 0.00503148
13 *5:13 *585:5 0.00419779
14 *5:19 *689:data_in[3] 0
15 *5:19 *689:data_in[4] 0
16 *5:19 *558:57 0
17 *5:19 *572:13 0
18 *5:19 *574:13 0
19 *5:19 *576:19 0
20 *5:23 *23:21 0.00561957
21 *5:23 *32:21 0.0281419
22 *5:23 *557:11 0.00460612
23 *5:23 *616:17 0.0374008
24 *2:21 *5:23 0.0139871
*RES
1 io_in[13] *5:7 14.12 
2 *5:7 *5:11 49.116 
3 *5:11 *5:13 698.776 
4 *5:13 *5:17 4.812 
5 *5:17 *5:19 174.824 
6 *5:19 *5:21 4.5 
7 *5:21 *5:23 176.28 
8 *5:23 *700:io_in[13] 9.752 
*END

*D_NET *6 0.251397
*CONN
*P io_in[14] I
*I *700:io_in[14] I *D wrapped_as2650
*CAP
1 io_in[14] 0.00244967
2 *700:io_in[14] 0.0239428
3 *6:15 0.0239428
4 *6:13 0.0993059
5 *6:11 0.101756
*RES
1 io_in[14] *6:11 27.044 
2 *6:11 *6:13 868.92 
3 *6:13 *6:15 4.5 
4 *6:15 *700:io_in[14] 198.692 
*END

*D_NET *7 0.25901
*CONN
*P io_in[15] I
*I *700:io_in[15] I *D wrapped_as2650
*CAP
1 io_in[15] 0.00783462
2 *700:io_in[15] 0.0246967
3 *7:11 0.0246967
4 *7:9 0.0969736
5 *7:7 0.0969736
6 *7:5 0.00783462
*RES
1 io_in[15] *7:5 65.78 
2 *7:5 *7:7 4.5 
3 *7:7 *7:9 849.16 
4 *7:9 *7:11 4.5 
5 *7:11 *700:io_in[15] 204.932 
*END

*D_NET *8 0.230442
*CONN
*P io_in[16] I
*I *700:io_in[16] I *D wrapped_as2650
*CAP
1 io_in[16] 0.00900709
2 *700:io_in[16] 0.000843812
3 *8:13 0.0239654
4 *8:11 0.0231216
5 *8:9 0.0815307
6 *8:7 0.0815307
7 *8:5 0.00900709
8 *700:io_in[16] *33:21 0.00143519
9 *8:9 *689:rst 0
*RES
1 io_in[16] *8:5 75.14 
2 *8:5 *8:7 4.5 
3 *8:7 *8:9 715 
4 *8:9 *8:11 4.5 
5 *8:11 *8:13 191.88 
6 *8:13 *700:io_in[16] 16.644 
*END

*D_NET *9 0.369335
*CONN
*P io_in[17] I
*I *700:io_in[17] I *D wrapped_as2650
*CAP
1 io_in[17] 0.00558301
2 *700:io_in[17] 0.0259386
3 *9:11 0.0259386
4 *9:9 0.0342169
5 *9:7 0.0342169
6 *9:5 0.00558301
7 *9:5 *87:13 0.00340774
8 *9:5 *89:13 0
9 *9:9 *54:17 0.23445
*RES
1 io_in[17] *9:5 56.212 
2 *9:5 *9:7 4.5 
3 *9:7 *9:9 588.328 
4 *9:9 *9:11 4.5 
5 *9:11 *700:io_in[17] 214.5 
*END

*D_NET *10 0.264389
*CONN
*P io_in[18] I
*I *700:io_in[18] I *D wrapped_as2650
*CAP
1 io_in[18] 0.00591921
2 *700:io_in[18] 0.0271013
3 *10:11 0.0271013
4 *10:9 0.0338748
5 *10:7 0.0338748
6 *10:5 0.00591921
7 *10:9 *51:17 0.130598
*RES
1 io_in[18] *10:5 46.852 
2 *10:5 *10:7 4.5 
3 *10:7 *10:9 457.912 
4 *10:9 *10:11 4.5 
5 *10:11 *700:io_in[18] 223.86 
*END

*D_NET *11 0.246644
*CONN
*P io_in[19] I
*I *687:io_in[0] I *D gpios
*CAP
1 io_in[19] 0.00132394
2 *687:io_in[0] 0.00514687
3 *11:17 0.0084855
4 *11:15 0.00333863
5 *11:13 0.0314055
6 *11:11 0.0314055
7 *11:9 0.0145915
8 *11:7 0.0159155
9 *11:9 *92:17 0.099364
10 *11:13 *55:13 0.0163664
11 *11:17 *699:bus_cyc 0.00192653
12 *11:17 *41:42 0.00160998
13 *11:17 *572:70 0.000535596
14 *11:17 *573:57 0.00466096
15 *11:17 *579:70 0.000470951
16 *11:17 *682:19 0.00921078
17 *4:17 *687:io_in[0] 0.000885718
*RES
1 io_in[19] *11:7 14.328 
2 *11:7 *11:9 249.496 
3 *11:9 *11:11 4.5 
4 *11:11 *11:13 259.896 
5 *11:13 *11:15 4.5 
6 *11:15 *11:17 52.728 
7 *11:17 *687:io_in[0] 42.824 
*END

*D_NET *12 1.24337
*CONN
*P io_in[1] I
*I *700:io_in[1] I *D wrapped_as2650
*CAP
1 io_in[1] 0.00120019
2 *700:io_in[1] 0.00100418
3 *12:21 0.00318111
4 *12:19 0.00217693
5 *12:17 0.0124545
6 *12:15 0.0124545
7 *12:13 0.0177476
8 *12:11 0.0177476
9 *12:9 0.0265018
10 *12:7 0.027702
11 *12:9 *50:25 0.135047
12 *12:9 *109:26 0.00439958
13 *12:13 *72:13 0.217589
14 *12:13 *497:11 0.109122
15 *12:17 *186:9 0.0491418
16 *12:17 *519:17 0.0730774
17 *12:17 *563:10 0.00476304
18 *12:17 *588:10 0.00210279
19 *12:17 *626:13 0.0216696
20 *12:17 *667:19 0.0648988
21 *12:21 *23:21 0.192956
22 *12:21 *33:21 0.00101734
23 *12:21 *35:21 0.000136632
24 *12:21 *38:21 0.0153593
25 *12:21 *616:17 0.000200525
26 *1:9 *12:9 0.0261133
27 *1:21 *12:21 0.198631
28 *4:25 *12:17 0.00497514
*RES
1 io_in[1] *12:7 14.12 
2 *12:7 *12:9 395.096 
3 *12:9 *12:11 4.5 
4 *12:11 *12:13 549.016 
5 *12:13 *12:15 4.5 
6 *12:15 *12:17 357.749 
7 *12:17 *12:19 4.5 
8 *12:19 *12:21 177.272 
9 *12:21 *700:io_in[1] 20.0929 
*END

*D_NET *13 0.487396
*CONN
*P io_in[20] I
*I *687:io_in[1] I *D gpios
*CAP
1 io_in[20] 0.000991096
2 *687:io_in[1] 0.00396154
3 *13:19 0.00649221
4 *13:13 0.0107469
5 *13:11 0.00821621
6 *13:9 0.00675395
7 *13:7 0.00774505
8 *687:io_in[1] *699:bus_we 0.00130163
9 *13:9 io_oeb[19] 0.00645534
10 *13:9 *87:17 0.114451
11 *13:9 *89:17 0.146009
12 *13:9 *91:17 0.00125999
13 *13:13 *52:13 0.0813033
14 *13:13 *429:13 0.0776637
15 *13:19 *90:9 0.0140456
*RES
1 io_in[20] *13:7 12.872 
2 *13:7 *13:9 391.352 
3 *13:9 *13:11 4.5 
4 *13:11 *13:13 269.256 
5 *13:13 *13:19 45.088 
6 *13:19 *687:io_in[1] 30.836 
*END

*D_NET *14 0.534935
*CONN
*P io_in[21] I
*I *687:io_in[2] I *D gpios
*CAP
1 io_in[21] 0.00103958
2 *687:io_in[2] 0.00129046
3 *14:17 0.00684906
4 *14:15 0.0055586
5 *14:13 0.0187304
6 *14:11 0.0187304
7 *14:9 0.00599263
8 *14:7 0.00703222
9 *14:9 *89:17 0.162287
10 *14:9 *90:17 0.193517
11 *14:9 *91:17 0.000535146
12 *14:13 *89:13 0.011193
13 *14:13 *432:13 0.0859348
14 *14:17 *430:17 0.0162449
*RES
1 io_in[21] *14:7 13.288 
2 *14:7 *14:9 489.112 
3 *14:9 *14:11 4.5 
4 *14:11 *14:13 290.888 
5 *14:13 *14:15 4.5 
6 *14:15 *14:17 63.96 
7 *14:17 *687:io_in[2] 12.872 
*END

*D_NET *15 0.49041
*CONN
*P io_in[22] I
*I *687:io_in[3] I *D gpios
*CAP
1 io_in[22] 0.00545745
2 *687:io_in[3] 0.000910279
3 *15:17 0.00397153
4 *15:13 0.00604191
5 *15:11 0.00298065
6 *15:9 0.0496778
7 *15:7 0.0551352
8 *15:9 io_out[24] 0
9 *15:9 *48:13 0.163336
10 *15:13 *51:13 0.0994051
11 *15:13 *430:13 0.0858252
12 *15:17 *687:io_in[12] 0.000340369
13 *15:17 *18:21 0.0173277
*RES
1 io_in[22] *15:7 48.44 
2 *15:7 *15:9 634.504 
3 *15:9 *15:11 4.5 
4 *15:11 *15:13 258.648 
5 *15:13 *15:17 48.908 
6 *15:17 *687:io_in[3] 9.96 
*END

*D_NET *16 0.710518
*CONN
*P io_in[23] I
*I *687:io_in[4] I *D gpios
*CAP
1 io_in[23] 0.00111232
2 *687:io_in[4] 0.00240232
3 *16:17 0.00658791
4 *16:15 0.00418559
5 *16:13 0.020343
6 *16:11 0.020343
7 *16:9 0.00662002
8 *16:7 0.00773234
9 *16:9 *91:17 0.263826
10 *16:9 *92:17 0.296472
11 *16:13 *92:13 0.0448998
12 *16:13 *603:14 0.0139657
13 *16:17 *17:13 0.0220283
*RES
1 io_in[23] *16:7 13.912 
2 *16:7 *16:9 744.328 
3 *16:9 *16:11 4.5 
4 *16:11 *16:13 281.112 
5 *16:13 *16:15 4.5 
6 *16:15 *16:17 59.592 
7 *16:17 *687:io_in[4] 22.024 
*END

*D_NET *17 0.424948
*CONN
*P io_in[24] I
*I *687:io_in[5] I *D gpios
*CAP
1 io_in[24] 0.0970194
2 *687:io_in[5] 0.00242656