*SPEF "ieee 1481-1999"
*DESIGN "user_project_wrapper"
*DATE "11:11:11 Fri 11 11, 1111"
*VENDOR "OpenRCX"
*PROGRAM "Parallel Extraction"
*VERSION "1.0"
*DESIGN_FLOW "NAME_SCOPE LOCAL" "PIN_CAP NONE"
*DIVIDER /
*DELIMITER :
*BUS_DELIMITER []
*T_UNIT 1 NS
*C_UNIT 1 PF
*R_UNIT 1 OHM
*L_UNIT 1 HENRY

*NAME_MAP
*1 io_in[0]
*2 io_in[10]
*3 io_in[11]
*4 io_in[12]
*5 io_in[13]
*6 io_in[14]
*7 io_in[15]
*8 io_in[16]
*9 io_in[17]
*10 io_in[18]
*11 io_in[19]
*12 io_in[1]
*13 io_in[20]
*14 io_in[21]
*15 io_in[22]
*16 io_in[23]
*17 io_in[24]
*18 io_in[25]
*19 io_in[26]
*20 io_in[27]
*21 io_in[28]
*22 io_in[29]
*23 io_in[2]
*24 io_in[30]
*25 io_in[31]
*26 io_in[32]
*27 io_in[33]
*28 io_in[34]
*29 io_in[35]
*30 io_in[36]
*31 io_in[37]
*32 io_in[3]
*33 io_in[4]
*34 io_in[5]
*35 io_in[6]
*36 io_in[7]
*37 io_in[8]
*38 io_in[9]
*39 io_oeb[0]
*40 io_oeb[10]
*41 io_oeb[11]
*42 io_oeb[12]
*43 io_oeb[13]
*44 io_oeb[14]
*45 io_oeb[15]
*46 io_oeb[16]
*47 io_oeb[17]
*48 io_oeb[18]
*49 io_oeb[19]
*50 io_oeb[1]
*51 io_oeb[20]
*52 io_oeb[21]
*53 io_oeb[22]
*54 io_oeb[23]
*55 io_oeb[24]
*56 io_oeb[25]
*57 io_oeb[26]
*58 io_oeb[27]
*59 io_oeb[28]
*60 io_oeb[29]
*61 io_oeb[2]
*62 io_oeb[30]
*63 io_oeb[31]
*64 io_oeb[32]
*65 io_oeb[33]
*66 io_oeb[34]
*67 io_oeb[35]
*68 io_oeb[36]
*69 io_oeb[37]
*70 io_oeb[3]
*71 io_oeb[4]
*72 io_oeb[5]
*73 io_oeb[6]
*74 io_oeb[7]
*75 io_oeb[8]
*76 io_oeb[9]
*77 io_out[0]
*78 io_out[10]
*79 io_out[11]
*80 io_out[12]
*81 io_out[13]
*82 io_out[14]
*83 io_out[15]
*84 io_out[16]
*85 io_out[17]
*86 io_out[18]
*87 io_out[19]
*88 io_out[1]
*89 io_out[20]
*90 io_out[21]
*91 io_out[22]
*92 io_out[23]
*93 io_out[24]
*94 io_out[25]
*95 io_out[26]
*96 io_out[27]
*97 io_out[28]
*98 io_out[29]
*99 io_out[2]
*100 io_out[30]
*101 io_out[31]
*102 io_out[32]
*103 io_out[33]
*104 io_out[34]
*105 io_out[35]
*106 io_out[36]
*107 io_out[37]
*108 io_out[3]
*109 io_out[4]
*110 io_out[5]
*111 io_out[6]
*112 io_out[7]
*113 io_out[8]
*114 io_out[9]
*115 la_data_in[0]
*116 la_data_in[10]
*117 la_data_in[11]
*118 la_data_in[12]
*119 la_data_in[13]
*120 la_data_in[14]
*121 la_data_in[15]
*122 la_data_in[16]
*123 la_data_in[17]
*124 la_data_in[18]
*125 la_data_in[19]
*126 la_data_in[1]
*127 la_data_in[20]
*128 la_data_in[21]
*129 la_data_in[22]
*130 la_data_in[23]
*131 la_data_in[24]
*132 la_data_in[25]
*133 la_data_in[26]
*134 la_data_in[27]
*135 la_data_in[28]
*136 la_data_in[29]
*137 la_data_in[2]
*138 la_data_in[30]
*139 la_data_in[31]
*140 la_data_in[32]
*141 la_data_in[33]
*142 la_data_in[34]
*143 la_data_in[35]
*144 la_data_in[36]
*145 la_data_in[37]
*146 la_data_in[38]
*147 la_data_in[39]
*148 la_data_in[3]
*149 la_data_in[40]
*150 la_data_in[41]
*151 la_data_in[42]
*152 la_data_in[43]
*153 la_data_in[44]
*154 la_data_in[45]
*155 la_data_in[46]
*156 la_data_in[47]
*157 la_data_in[48]
*158 la_data_in[49]
*159 la_data_in[4]
*160 la_data_in[50]
*161 la_data_in[51]
*162 la_data_in[52]
*163 la_data_in[53]
*164 la_data_in[54]
*165 la_data_in[55]
*166 la_data_in[56]
*167 la_data_in[57]
*168 la_data_in[58]
*169 la_data_in[59]
*170 la_data_in[5]
*171 la_data_in[60]
*172 la_data_in[61]
*173 la_data_in[62]
*174 la_data_in[63]
*175 la_data_in[6]
*176 la_data_in[7]
*177 la_data_in[8]
*178 la_data_in[9]
*179 la_data_out[0]
*180 la_data_out[10]
*181 la_data_out[11]
*182 la_data_out[12]
*183 la_data_out[13]
*184 la_data_out[14]
*185 la_data_out[15]
*186 la_data_out[16]
*187 la_data_out[17]
*188 la_data_out[18]
*189 la_data_out[19]
*190 la_data_out[1]
*191 la_data_out[20]
*192 la_data_out[21]
*193 la_data_out[22]
*194 la_data_out[23]
*195 la_data_out[24]
*196 la_data_out[25]
*197 la_data_out[26]
*198 la_data_out[27]
*199 la_data_out[28]
*200 la_data_out[29]
*201 la_data_out[2]
*202 la_data_out[30]
*203 la_data_out[31]
*204 la_data_out[32]
*205 la_data_out[33]
*206 la_data_out[34]
*207 la_data_out[35]
*208 la_data_out[36]
*209 la_data_out[37]
*210 la_data_out[38]
*211 la_data_out[39]
*212 la_data_out[3]
*213 la_data_out[40]
*214 la_data_out[41]
*215 la_data_out[42]
*216 la_data_out[43]
*217 la_data_out[44]
*218 la_data_out[45]
*219 la_data_out[46]
*220 la_data_out[47]
*221 la_data_out[48]
*222 la_data_out[49]
*223 la_data_out[4]
*224 la_data_out[50]
*225 la_data_out[51]
*226 la_data_out[52]
*227 la_data_out[53]
*228 la_data_out[54]
*229 la_data_out[55]
*230 la_data_out[56]
*231 la_data_out[57]
*232 la_data_out[58]
*233 la_data_out[59]
*234 la_data_out[5]
*235 la_data_out[60]
*236 la_data_out[61]
*237 la_data_out[62]
*238 la_data_out[63]
*239 la_data_out[6]
*240 la_data_out[7]
*241 la_data_out[8]
*242 la_data_out[9]
*243 la_oenb[0]
*244 la_oenb[10]
*245 la_oenb[11]
*246 la_oenb[12]
*247 la_oenb[13]
*248 la_oenb[14]
*249 la_oenb[15]
*250 la_oenb[16]
*251 la_oenb[17]
*252 la_oenb[18]
*253 la_oenb[19]
*254 la_oenb[1]
*255 la_oenb[20]
*256 la_oenb[21]
*257 la_oenb[22]
*258 la_oenb[23]
*259 la_oenb[24]
*260 la_oenb[25]
*261 la_oenb[26]
*262 la_oenb[27]
*263 la_oenb[28]
*264 la_oenb[29]
*265 la_oenb[2]
*266 la_oenb[30]
*267 la_oenb[31]
*268 la_oenb[32]
*269 la_oenb[33]
*270 la_oenb[34]
*271 la_oenb[35]
*272 la_oenb[36]
*273 la_oenb[37]
*274 la_oenb[38]
*275 la_oenb[39]
*276 la_oenb[3]
*277 la_oenb[40]
*278 la_oenb[41]
*279 la_oenb[42]
*280 la_oenb[43]
*281 la_oenb[44]
*282 la_oenb[45]
*283 la_oenb[46]
*284 la_oenb[47]
*285 la_oenb[48]
*286 la_oenb[49]
*287 la_oenb[4]
*288 la_oenb[50]
*289 la_oenb[51]
*290 la_oenb[52]
*291 la_oenb[53]
*292 la_oenb[54]
*293 la_oenb[55]
*294 la_oenb[56]
*295 la_oenb[57]
*296 la_oenb[58]
*297 la_oenb[59]
*298 la_oenb[5]
*299 la_oenb[60]
*300 la_oenb[61]
*301 la_oenb[62]
*302 la_oenb[63]
*303 la_oenb[6]
*304 la_oenb[7]
*305 la_oenb[8]
*306 la_oenb[9]
*307 user_clock2
*308 user_irq[0]
*309 user_irq[1]
*310 user_irq[2]
*313 wb_clk_i
*314 wb_rst_i
*315 wbs_ack_o
*316 wbs_adr_i[0]
*317 wbs_adr_i[10]
*318 wbs_adr_i[11]
*319 wbs_adr_i[12]
*320 wbs_adr_i[13]
*321 wbs_adr_i[14]
*322 wbs_adr_i[15]
*323 wbs_adr_i[16]
*324 wbs_adr_i[17]
*325 wbs_adr_i[18]
*326 wbs_adr_i[19]
*327 wbs_adr_i[1]
*328 wbs_adr_i[20]
*329 wbs_adr_i[21]
*330 wbs_adr_i[22]
*331 wbs_adr_i[23]
*332 wbs_adr_i[24]
*333 wbs_adr_i[25]
*334 wbs_adr_i[26]
*335 wbs_adr_i[27]
*336 wbs_adr_i[28]
*337 wbs_adr_i[29]
*338 wbs_adr_i[2]
*339 wbs_adr_i[30]
*340 wbs_adr_i[31]
*341 wbs_adr_i[3]
*342 wbs_adr_i[4]
*343 wbs_adr_i[5]
*344 wbs_adr_i[6]
*345 wbs_adr_i[7]
*346 wbs_adr_i[8]
*347 wbs_adr_i[9]
*348 wbs_cyc_i
*349 wbs_dat_i[0]
*350 wbs_dat_i[10]
*351 wbs_dat_i[11]
*352 wbs_dat_i[12]
*353 wbs_dat_i[13]
*354 wbs_dat_i[14]
*355 wbs_dat_i[15]
*356 wbs_dat_i[16]
*357 wbs_dat_i[17]
*358 wbs_dat_i[18]
*359 wbs_dat_i[19]
*360 wbs_dat_i[1]
*361 wbs_dat_i[20]
*362 wbs_dat_i[21]
*363 wbs_dat_i[22]
*364 wbs_dat_i[23]
*365 wbs_dat_i[24]
*366 wbs_dat_i[25]
*367 wbs_dat_i[26]
*368 wbs_dat_i[27]
*369 wbs_dat_i[28]
*370 wbs_dat_i[29]
*371 wbs_dat_i[2]
*372 wbs_dat_i[30]
*373 wbs_dat_i[31]
*374 wbs_dat_i[3]
*375 wbs_dat_i[4]
*376 wbs_dat_i[5]
*377 wbs_dat_i[6]
*378 wbs_dat_i[7]
*379 wbs_dat_i[8]
*380 wbs_dat_i[9]
*381 wbs_dat_o[0]
*382 wbs_dat_o[10]
*383 wbs_dat_o[11]
*384 wbs_dat_o[12]
*385 wbs_dat_o[13]
*386 wbs_dat_o[14]
*387 wbs_dat_o[15]
*388 wbs_dat_o[16]
*389 wbs_dat_o[17]
*390 wbs_dat_o[18]
*391 wbs_dat_o[19]
*392 wbs_dat_o[1]
*393 wbs_dat_o[20]
*394 wbs_dat_o[21]
*395 wbs_dat_o[22]
*396 wbs_dat_o[23]
*397 wbs_dat_o[24]
*398 wbs_dat_o[25]
*399 wbs_dat_o[26]
*400 wbs_dat_o[27]
*401 wbs_dat_o[28]
*402 wbs_dat_o[29]
*403 wbs_dat_o[2]
*404 wbs_dat_o[30]
*405 wbs_dat_o[31]
*406 wbs_dat_o[3]
*407 wbs_dat_o[4]
*408 wbs_dat_o[5]
*409 wbs_dat_o[6]
*410 wbs_dat_o[7]
*411 wbs_dat_o[8]
*412 wbs_dat_o[9]
*413 wbs_sel_i[0]
*414 wbs_sel_i[1]
*415 wbs_sel_i[2]
*416 wbs_sel_i[3]
*417 wbs_stb_i
*418 wbs_we_i
*419 RAM_end_addr\[0\]
*420 RAM_end_addr\[10\]
*421 RAM_end_addr\[11\]
*422 RAM_end_addr\[12\]
*423 RAM_end_addr\[13\]
*424 RAM_end_addr\[14\]
*425 RAM_end_addr\[15\]
*426 RAM_end_addr\[1\]
*427 RAM_end_addr\[2\]
*428 RAM_end_addr\[3\]
*429 RAM_end_addr\[4\]
*430 RAM_end_addr\[5\]
*431 RAM_end_addr\[6\]
*432 RAM_end_addr\[7\]
*433 RAM_end_addr\[8\]
*434 RAM_end_addr\[9\]
*435 RAM_start_addr\[0\]
*436 RAM_start_addr\[10\]
*437 RAM_start_addr\[11\]
*438 RAM_start_addr\[12\]
*439 RAM_start_addr\[13\]
*440 RAM_start_addr\[14\]
*441 RAM_start_addr\[15\]
*442 RAM_start_addr\[1\]
*443 RAM_start_addr\[2\]
*444 RAM_start_addr\[3\]
*445 RAM_start_addr\[4\]
*446 RAM_start_addr\[5\]
*447 RAM_start_addr\[6\]
*448 RAM_start_addr\[7\]
*449 RAM_start_addr\[8\]
*450 RAM_start_addr\[9\]
*451 RXD
*452 TXD
*453 WEb_raw
*454 boot_rom_en
*455 bus_addr\[0\]
*456 bus_addr\[1\]
*457 bus_addr\[2\]
*458 bus_addr\[3\]
*459 bus_addr\[4\]
*460 bus_addr\[5\]
*461 bus_cyc
*462 bus_data_gpios\[0\]
*463 bus_data_gpios\[1\]
*464 bus_data_gpios\[2\]
*465 bus_data_gpios\[3\]
*466 bus_data_gpios\[4\]
*467 bus_data_gpios\[5\]
*468 bus_data_gpios\[6\]
*469 bus_data_gpios\[7\]
*470 bus_data_out\[0\]
*471 bus_data_out\[1\]
*472 bus_data_out\[2\]
*473 bus_data_out\[3\]
*474 bus_data_out\[4\]
*475 bus_data_out\[5\]
*476 bus_data_out\[6\]
*477 bus_data_out\[7\]
*478 bus_data_serial_ports\[0\]
*479 bus_data_serial_ports\[1\]
*480 bus_data_serial_ports\[2\]
*481 bus_data_serial_ports\[3\]
*482 bus_data_serial_ports\[4\]
*483 bus_data_serial_ports\[5\]
*484 bus_data_serial_ports\[6\]
*485 bus_data_serial_ports\[7\]
*486 bus_data_timers\[0\]
*487 bus_data_timers\[1\]
*488 bus_data_timers\[2\]
*489 bus_data_timers\[3\]
*490 bus_data_timers\[4\]
*491 bus_data_timers\[5\]
*492 bus_data_timers\[6\]
*493 bus_data_timers\[7\]
*494 bus_we_gpios
*495 bus_we_serial_ports
*496 bus_we_timers
*497 cs_port\[0\]
*498 cs_port\[1\]
*499 cs_port\[2\]
*500 irq0
*501 irq1
*502 irq2
*503 irq3
*504 irq5
*505 irq6
*506 irq7
*507 le_hi_act
*508 le_lo_act
*509 pwm0
*510 pwm1
*511 pwm2
*512 reset
*513 rom_bus_in\[0\]
*514 rom_bus_in\[1\]
*515 rom_bus_in\[2\]
*516 rom_bus_in\[3\]
*517 rom_bus_in\[4\]
*518 rom_bus_in\[5\]
*519 rom_bus_in\[6\]
*520 rom_bus_in\[7\]
*521 rom_bus_out\[0\]
*522 rom_bus_out\[1\]
*523 rom_bus_out\[2\]
*524 rom_bus_out\[3\]
*525 rom_bus_out\[4\]
*526 rom_bus_out\[5\]
*527 rom_bus_out\[6\]
*528 rom_bus_out\[7\]
*529 tmr0_clk
*530 tmr0_o
*531 tmr1_clk
*532 tmr1_o
*533 avali_logo
*534 boot_rom
*535 gpios
*536 serial_ports
*537 timers
*538 wrapped_as2650

*PORTS
io_in[0] I
io_in[10] I
io_in[11] I
io_in[12] I
io_in[13] I
io_in[14] I
io_in[15] I
io_in[16] I
io_in[17] I
io_in[18] I
io_in[19] I
io_in[1] I
io_in[20] I
io_in[21] I
io_in[22] I
io_in[23] I
io_in[24] I
io_in[25] I
io_in[26] I
io_in[27] I
io_in[28] I
io_in[29] I
io_in[2] I
io_in[30] I
io_in[31] I
io_in[32] I
io_in[33] I
io_in[34] I
io_in[35] I
io_in[36] I
io_in[37] I
io_in[3] I
io_in[4] I
io_in[5] I
io_in[6] I
io_in[7] I
io_in[8] I
io_in[9] I
io_oeb[0] O
io_oeb[10] O
io_oeb[11] O
io_oeb[12] O
io_oeb[13] O
io_oeb[14] O
io_oeb[15] O
io_oeb[16] O
io_oeb[17] O
io_oeb[18] O
io_oeb[19] O
io_oeb[1] O
io_oeb[20] O
io_oeb[21] O
io_oeb[22] O
io_oeb[23] O
io_oeb[24] O
io_oeb[25] O
io_oeb[26] O
io_oeb[27] O
io_oeb[28] O
io_oeb[29] O
io_oeb[2] O
io_oeb[30] O
io_oeb[31] O
io_oeb[32] O
io_oeb[33] O
io_oeb[34] O
io_oeb[35] O
io_oeb[36] O
io_oeb[37] O
io_oeb[3] O
io_oeb[4] O
io_oeb[5] O
io_oeb[6] O
io_oeb[7] O
io_oeb[8] O
io_oeb[9] O
io_out[0] O
io_out[10] O
io_out[11] O
io_out[12] O
io_out[13] O
io_out[14] O
io_out[15] O
io_out[16] O
io_out[17] O
io_out[18] O
io_out[19] O
io_out[1] O
io_out[20] O
io_out[21] O
io_out[22] O
io_out[23] O
io_out[24] O
io_out[25] O
io_out[26] O
io_out[27] O
io_out[28] O
io_out[29] O
io_out[2] O
io_out[30] O
io_out[31] O
io_out[32] O
io_out[33] O
io_out[34] O
io_out[35] O
io_out[36] O
io_out[37] O
io_out[3] O
io_out[4] O
io_out[5] O
io_out[6] O
io_out[7] O
io_out[8] O
io_out[9] O
la_data_in[0] I
la_data_in[10] I
la_data_in[11] I
la_data_in[12] I
la_data_in[13] I
la_data_in[14] I
la_data_in[15] I
la_data_in[16] I
la_data_in[17] I
la_data_in[18] I
la_data_in[19] I
la_data_in[1] I
la_data_in[20] I
la_data_in[21] I
la_data_in[22] I
la_data_in[23] I
la_data_in[24] I
la_data_in[25] I
la_data_in[26] I
la_data_in[27] I
la_data_in[28] I
la_data_in[29] I
la_data_in[2] I
la_data_in[30] I
la_data_in[31] I
la_data_in[32] I
la_data_in[33] I
la_data_in[34] I
la_data_in[35] I
la_data_in[36] I
la_data_in[37] I
la_data_in[38] I
la_data_in[39] I
la_data_in[3] I
la_data_in[40] I
la_data_in[41] I
la_data_in[42] I
la_data_in[43] I
la_data_in[44] I
la_data_in[45] I
la_data_in[46] I
la_data_in[47] I
la_data_in[48] I
la_data_in[49] I
la_data_in[4] I
la_data_in[50] I
la_data_in[51] I
la_data_in[52] I
la_data_in[53] I
la_data_in[54] I
la_data_in[55] I
la_data_in[56] I
la_data_in[57] I
la_data_in[58] I
la_data_in[59] I
la_data_in[5] I
la_data_in[60] I
la_data_in[61] I
la_data_in[62] I
la_data_in[63] I
la_data_in[6] I
la_data_in[7] I
la_data_in[8] I
la_data_in[9] I
la_data_out[0] O
la_data_out[10] O
la_data_out[11] O
la_data_out[12] O
la_data_out[13] O
la_data_out[14] O
la_data_out[15] O
la_data_out[16] O
la_data_out[17] O
la_data_out[18] O
la_data_out[19] O
la_data_out[1] O
la_data_out[20] O
la_data_out[21] O
la_data_out[22] O
la_data_out[23] O
la_data_out[24] O
la_data_out[25] O
la_data_out[26] O
la_data_out[27] O
la_data_out[28] O
la_data_out[29] O
la_data_out[2] O
la_data_out[30] O
la_data_out[31] O
la_data_out[32] O
la_data_out[33] O
la_data_out[34] O
la_data_out[35] O
la_data_out[36] O
la_data_out[37] O
la_data_out[38] O
la_data_out[39] O
la_data_out[3] O
la_data_out[40] O
la_data_out[41] O
la_data_out[42] O
la_data_out[43] O
la_data_out[44] O
la_data_out[45] O
la_data_out[46] O
la_data_out[47] O
la_data_out[48] O
la_data_out[49] O
la_data_out[4] O
la_data_out[50] O
la_data_out[51] O
la_data_out[52] O
la_data_out[53] O
la_data_out[54] O
la_data_out[55] O
la_data_out[56] O
la_data_out[57] O
la_data_out[58] O
la_data_out[59] O
la_data_out[5] O
la_data_out[60] O
la_data_out[61] O
la_data_out[62] O
la_data_out[63] O
la_data_out[6] O
la_data_out[7] O
la_data_out[8] O
la_data_out[9] O
la_oenb[0] I
la_oenb[10] I
la_oenb[11] I
la_oenb[12] I
la_oenb[13] I
la_oenb[14] I
la_oenb[15] I
la_oenb[16] I
la_oenb[17] I
la_oenb[18] I
la_oenb[19] I
la_oenb[1] I
la_oenb[20] I
la_oenb[21] I
la_oenb[22] I
la_oenb[23] I
la_oenb[24] I
la_oenb[25] I
la_oenb[26] I
la_oenb[27] I
la_oenb[28] I
la_oenb[29] I
la_oenb[2] I
la_oenb[30] I
la_oenb[31] I
la_oenb[32] I
la_oenb[33] I
la_oenb[34] I
la_oenb[35] I
la_oenb[36] I
la_oenb[37] I
la_oenb[38] I
la_oenb[39] I
la_oenb[3] I
la_oenb[40] I
la_oenb[41] I
la_oenb[42] I
la_oenb[43] I
la_oenb[44] I
la_oenb[45] I
la_oenb[46] I
la_oenb[47] I
la_oenb[48] I
la_oenb[49] I
la_oenb[4] I
la_oenb[50] I
la_oenb[51] I
la_oenb[52] I
la_oenb[53] I
la_oenb[54] I
la_oenb[55] I
la_oenb[56] I
la_oenb[57] I
la_oenb[58] I
la_oenb[59] I
la_oenb[5] I
la_oenb[60] I
la_oenb[61] I
la_oenb[62] I
la_oenb[63] I
la_oenb[6] I
la_oenb[7] I
la_oenb[8] I
la_oenb[9] I
user_clock2 I
user_irq[0] O
user_irq[1] O
user_irq[2] O
wb_clk_i I
wb_rst_i I
wbs_ack_o O
wbs_adr_i[0] I
wbs_adr_i[10] I
wbs_adr_i[11] I
wbs_adr_i[12] I
wbs_adr_i[13] I
wbs_adr_i[14] I
wbs_adr_i[15] I
wbs_adr_i[16] I
wbs_adr_i[17] I
wbs_adr_i[18] I
wbs_adr_i[19] I
wbs_adr_i[1] I
wbs_adr_i[20] I
wbs_adr_i[21] I
wbs_adr_i[22] I
wbs_adr_i[23] I
wbs_adr_i[24] I
wbs_adr_i[25] I
wbs_adr_i[26] I
wbs_adr_i[27] I
wbs_adr_i[28] I
wbs_adr_i[29] I
wbs_adr_i[2] I
wbs_adr_i[30] I
wbs_adr_i[31] I
wbs_adr_i[3] I
wbs_adr_i[4] I
wbs_adr_i[5] I
wbs_adr_i[6] I
wbs_adr_i[7] I
wbs_adr_i[8] I
wbs_adr_i[9] I
wbs_cyc_i I
wbs_dat_i[0] I
wbs_dat_i[10] I
wbs_dat_i[11] I
wbs_dat_i[12] I
wbs_dat_i[13] I
wbs_dat_i[14] I
wbs_dat_i[15] I
wbs_dat_i[16] I
wbs_dat_i[17] I
wbs_dat_i[18] I
wbs_dat_i[19] I
wbs_dat_i[1] I
wbs_dat_i[20] I
wbs_dat_i[21] I
wbs_dat_i[22] I
wbs_dat_i[23] I
wbs_dat_i[24] I
wbs_dat_i[25] I
wbs_dat_i[26] I
wbs_dat_i[27] I
wbs_dat_i[28] I
wbs_dat_i[29] I
wbs_dat_i[2] I
wbs_dat_i[30] I
wbs_dat_i[31] I
wbs_dat_i[3] I
wbs_dat_i[4] I
wbs_dat_i[5] I
wbs_dat_i[6] I
wbs_dat_i[7] I
wbs_dat_i[8] I
wbs_dat_i[9] I
wbs_dat_o[0] O
wbs_dat_o[10] O
wbs_dat_o[11] O
wbs_dat_o[12] O
wbs_dat_o[13] O
wbs_dat_o[14] O
wbs_dat_o[15] O
wbs_dat_o[16] O
wbs_dat_o[17] O
wbs_dat_o[18] O
wbs_dat_o[19] O
wbs_dat_o[1] O
wbs_dat_o[20] O
wbs_dat_o[21] O
wbs_dat_o[22] O
wbs_dat_o[23] O
wbs_dat_o[24] O
wbs_dat_o[25] O
wbs_dat_o[26] O
wbs_dat_o[27] O
wbs_dat_o[28] O
wbs_dat_o[29] O
wbs_dat_o[2] O
wbs_dat_o[30] O
wbs_dat_o[31] O
wbs_dat_o[3] O
wbs_dat_o[4] O
wbs_dat_o[5] O
wbs_dat_o[6] O
wbs_dat_o[7] O
wbs_dat_o[8] O
wbs_dat_o[9] O
wbs_sel_i[0] I
wbs_sel_i[1] I
wbs_sel_i[2] I
wbs_sel_i[3] I
wbs_stb_i I
wbs_we_i I

*D_NET *1 0.438485
*CONN
*P io_in[0] I
*I *538:io_in[0] I *D wrapped_as2650
*CAP
1 io_in[0] 0.0437167
2 *538:io_in[0] 0.00126246
3 *1:13 0.0160443
4 *1:11 0.0147818
5 *1:9 0.0716939
6 *1:7 0.0716939
7 *1:5 0.0437167
8 *538:io_in[0] *12:13 0.000612049
9 *1:5 la_data_out[19] 0.0005272
10 *1:5 la_data_out[20] 0.000175636
11 *1:5 *217:13 0.0203623
12 *1:5 *224:13 0.00381948
13 *1:5 *309:13 0
14 *1:13 *12:13 0.000812858
15 *1:13 *33:13 0.0267777
16 *1:13 *33:19 0.00653232
17 *1:13 *33:21 0.0819948
18 *1:13 *453:22 0.0232651
19 *1:13 *458:14 0.00253319
20 *1:13 *458:16 0.00810207
21 *1:13 *508:14 6.10699e-05
*RES
1 io_in[0] *1:5 380.95 
2 *1:5 *1:7 4.5 
3 *1:7 *1:9 477.812 
4 *1:9 *1:11 4.5 
5 *1:11 *1:13 304.456 
6 *1:13 *538:io_in[0] 15.672 
*END

*D_NET *2 0.291733
*CONN
*P io_in[10] I
*I *538:io_in[10] I *D wrapped_as2650
*CAP
1 io_in[10] 0.0683009
2 *538:io_in[10] 0.00891658
3 *2:7 0.00891658
4 *2:5 0.0683009
5 *2:5 io_out[28] 0.137298
6 *2:5 *481:15 0
*RES
1 io_in[10] *2:5 644.518 
2 *2:5 *2:7 4.5 
3 *2:7 *538:io_in[10] 59.318 
*END

*D_NET *3 0.214809
*CONN
*P io_in[11] I
*I *538:io_in[11] I *D wrapped_as2650
*CAP
1 io_in[11] 0.00177556
2 *538:io_in[11] 0.00425975
3 *3:13 0.0931288
4 *3:11 0.088869
5 *3:9 0.0125001
6 *3:7 0.0142756
*RES
1 io_in[11] *3:7 16.09 
2 *3:7 *3:9 85.196 
3 *3:9 *3:11 4.5 
4 *3:11 *3:13 627.836 
5 *3:13 *538:io_in[11] 32.506 
*END

*D_NET *4 0.23918
*CONN
*P io_in[12] I
*I *538:io_in[12] I *D wrapped_as2650
*CAP
1 io_in[12] 0.0894235
2 *538:io_in[12] 0.0301665
3 *4:7 0.0301665
4 *4:5 0.0894235
*RES
1 io_in[12] *4:5 634.182 
2 *4:5 *4:7 4.5 
3 *4:7 *538:io_in[12] 166.934 
*END

*D_NET *5 0.256737
*CONN
*P io_in[13] I
*I *538:io_in[13] I *D wrapped_as2650
*CAP
1 io_in[13] 0.0885781
2 *538:io_in[13] 0.0397904
3 *5:7 0.0397904
4 *5:5 0.0885781
*RES
1 io_in[13] *5:5 629.014 
2 *5:5 *5:7 4.5 
3 *5:7 *538:io_in[13] 220.742 
*END

*D_NET *6 0.257208
*CONN
*P io_in[14] I
*I *538:io_in[14] I *D wrapped_as2650
*CAP
1 io_in[14] 0.00148059
2 *538:io_in[14] 0.0402198
3 *6:15 0.0402198
4 *6:13 0.0869038
5 *6:11 0.0883844
*RES
1 io_in[14] *6:11 17.626 
2 *6:11 *6:13 617.956 
3 *6:13 *6:15 4.5 
4 *6:15 *538:io_in[14] 271.966 
*END

*D_NET *7 0.264186
*CONN
*P io_in[15] I
*I *538:io_in[15] I *D wrapped_as2650
*CAP
1 io_in[15] 0.00768058
2 *538:io_in[15] 0.0395509
3 *7:11 0.0395509
4 *7:9 0.0848614
5 *7:7 0.0848614
6 *7:5 0.00768058
*RES
1 io_in[15] *7:5 52.63 
2 *7:5 *7:7 4.5 
3 *7:7 *7:9 603.82 
4 *7:9 *7:11 4.5 
5 *7:11 *538:io_in[15] 267.406 
*END

*D_NET *8 0.238492
*CONN
*P io_in[16] I
*I *538:io_in[16] I *D wrapped_as2650
*CAP
1 io_in[16] 0.0420713
2 *538:io_in[16] 0.00539103
3 *8:9 0.0771747
4 *8:7 0.0717837
5 *8:5 0.0420713
*RES
1 io_in[16] *8:5 287.47 
2 *8:5 *8:7 4.5 
3 *8:7 *8:9 506.54 
4 *8:9 *538:io_in[16] 48.498 
*END

*D_NET *9 0.224304
*CONN
*P io_in[17] I
*I *538:io_in[17] I *D wrapped_as2650
*CAP
1 io_in[17] 0.00736535
2 *538:io_in[17] 0.0399046
3 *9:11 0.0399046
4 *9:9 0.036257
5 *9:7 0.036257
6 *9:5 0.00736535
7 *9:9 io_oeb[24] 0.0572498
*RES
1 io_in[17] *9:5 50.35 
2 *9:5 *9:7 4.5 
3 *9:7 *9:9 413.82 
4 *9:9 *9:11 4.5 
5 *9:11 *538:io_in[17] 269.686 
*END

*D_NET *10 0.184491
*CONN
*P io_in[18] I
*I *538:io_in[18] I *D wrapped_as2650
*CAP
1 io_in[18] 0.00638776
2 *538:io_in[18] 0.0409462
3 *10:11 0.0409462
4 *10:9 0.0449113
5 *10:7 0.0512991
*RES
1 io_in[18] *10:7 48.01 
2 *10:7 *10:9 318.82 
3 *10:9 *10:11 4.5 
4 *10:11 *538:io_in[18] 276.526 
*END

*D_NET *11 0.276506
*CONN
*P io_in[19] I
*I *535:io_in[0] I *D gpios
*CAP
1 io_in[19] 0.064359
2 *535:io_in[0] 0.00111683
3 *11:9 0.0171418
4 *11:7 0.016025
5 *11:5 0.064359
6 *535:io_in[0] *535:io_in[1] 0
7 *11:5 *217:9 0.0206549
8 *11:9 *91:9 0.0916585
9 *11:9 *191:5 0.00119085
*RES
1 io_in[19] *11:5 456.038 
2 *11:5 *11:7 4.5 
3 *11:7 *11:9 222.604 
4 *11:9 *535:io_in[0] 10.922 
*END

*D_NET *12 0.466065
*CONN
*P io_in[1] I
*I *538:io_in[1] I *D wrapped_as2650
*CAP
1 io_in[1] 0.0520466
2 *538:io_in[1] 0
3 *12:13 0.00514919
4 *12:11 0.00514919
5 *12:9 0.0638643
6 *12:7 0.0638643
7 *12:5 0.0520466
8 *12:13 *33:21 0.0090345
9 *12:13 *34:13 0.125517
10 *12:13 *502:17 0.00318947
11 *12:13 *505:17 0.0847787
12 *538:io_in[0] *12:13 0.000612049
13 *1:13 *12:13 0.000812858
*RES
1 io_in[1] *12:5 367.27 
2 *12:5 *12:7 4.5 
3 *12:7 *12:9 424.764 
4 *12:9 *12:11 4.5 
5 *12:11 *12:13 323.836 
6 *12:13 *538:io_in[1] 4.5 
*END

*D_NET *13 0.275686
*CONN
*P io_in[20] I
*I *535:io_in[1] I *D gpios
*CAP
1 io_in[20] 0.000867961
2 *535:io_in[1] 0.0031303
3 *13:17 0.0367613
4 *13:15 0.033631
5 *13:13 0.0607272
6 *13:11 0.0607272
7 *13:9 0.00364182
8 *13:7 0.00450979
9 *535:io_in[1] *535:io_in[2] 0
10 *13:9 *14:9 0.000881559
11 *13:9 *15:9 0.000234091
12 *13:9 *89:17 0.0173399
13 *13:13 *458:20 0.0259208
14 *13:17 *197:5 0.0273128
15 *535:io_in[0] *535:io_in[1] 0
*RES
1 io_in[20] *13:7 10.466 
2 *13:7 *13:9 48.716 
3 *13:9 *13:11 4.5 
4 *13:11 *13:13 436.62 
5 *13:13 *13:15 4.5 
6 *13:15 *13:17 265.012 
7 *13:17 *535:io_in[1] 24.45 
*END

*D_NET *14 0.334838
*CONN
*P io_in[21] I
*I *535:io_in[2] I *D gpios
*CAP
1 io_in[21] 0.000911699
2 *535:io_in[2] 0.00485366
3 *14:17 0.0423553
4 *14:15 0.0375016
5 *14:13 0.0563743
6 *14:11 0.0563743
7 *14:9 0.00466461
8 *14:7 0.00557631
9 *535:io_in[2] *535:io_in[3] 0
10 *14:9 io_oeb[19] 0.00211433
11 *14:9 *15:9 0.00307402
12 *14:9 *89:17 0.0298451
13 *14:9 *90:29 0.0479527
14 *14:13 *504:13 0.0396372
15 *14:17 *203:5 0.00272095
16 *14:17 *204:7 0
17 *535:io_in[1] *535:io_in[2] 0
18 *13:9 *14:9 0.000881559
*RES
1 io_in[21] *14:7 10.77 
2 *14:7 *14:9 136.268 
3 *14:9 *14:11 4.5 
4 *14:11 *14:13 424.916 
5 *14:13 *14:15 4.5 
6 *14:15 *14:17 268.812 
7 *14:17 *535:io_in[2] 35.85 
*END

*D_NET *15 0.412583
*CONN
*P io_in[22] I
*I *535:io_in[3] I *D gpios
*CAP
1 io_in[22] 0.000955437
2 *535:io_in[3] 0.00449518
3 *15:17 0.0325811
4 *15:15 0.028086
5 *15:13 0.063946
6 *15:11 0.063946
7 *15:9 0.00601049
8 *15:7 0.00696593
9 *535:io_in[3] *535:io_in[4] 0
10 *15:9 io_oeb[19] 0.00212118
11 *15:9 *90:29 0.0604669
12 *15:9 *91:17 0.101215
13 *15:17 *93:9 0.0323562
14 *15:17 *202:5 0.00612881
15 *15:17 *203:5 0
16 *535:io_in[2] *535:io_in[3] 0
17 *13:9 *15:9 0.000234091
18 *14:9 *15:9 0.00307402
*RES
1 io_in[22] *15:7 11.074 
2 *15:7 *15:9 244.34 
3 *15:9 *15:11 4.5 
4 *15:11 *15:13 426.892 
5 *15:13 *15:15 4.5 
6 *15:15 *15:17 252.092 
7 *15:17 *535:io_in[3] 33.57 
*END

*D_NET *16 0.361831
*CONN
*P io_in[23] I
*I *535:io_in[4] I *D gpios
*CAP
1 io_in[23] 0.00115676
2 *535:io_in[4] 0.00620251
3 *16:23 0.0236975
4 *16:21 0.017495
5 *16:19 0.0601544
6 *16:17 0.0601544
7 *16:15 0.0397648
8 *16:13 0.0409216
9 *535:io_in[4] *535:io_in[5] 0
10 *16:15 *90:27 0.00058144
11 *16:23 *36:5 0.103462
12 *16:23 *207:5 0
13 *16:23 *208:5 0.00824055
14 *535:io_in[3] *535:io_in[4] 0
*RES
1 io_in[23] *16:13 21.6239 
2 *16:13 *16:15 134.195 
3 *16:15 *16:17 4.5 
4 *16:17 *16:19 414.018 
5 *16:19 *16:21 4.5 
6 *16:21 *16:23 267.292 
7 *16:23 *535:io_in[4] 44.97 
*END

*D_NET *17 0.323996
*CONN
*P io_in[24] I
*I *535:io_in[5] I *D gpios
*CAP
1 io_in[24] 0.0583832
2 *535:io_in[5] 0.005516
3 *17:13 0.0390043
4 *17:11 0.0334883
5 *17:9 0.0620882
6 *17:7 0.0620882
7 *17:5 0.0583832
8 *535:io_in[5] *535:io_in[6] 0
9 *17:13 *206:5 0.00504442
10 *535:io_in[4] *535:io_in[5] 0
*RES
1 io_in[24] *17:5 415.606 
2 *17:5 *17:7 4.5 
3 *17:7 *17:9 415.036 
4 *17:9 *17:11 4.5 
5 *17:11 *17:13 248.292 
6 *17:13 *535:io_in[5] 40.41 
*END

*D_NET *18 0.568822
*CONN
*P io_in[25] I
*I *535:io_in[6] I *D gpios
*CAP
1 io_in[25] 0.000717285
2 *535:io_in[6] 0.00082144
3 *18:21 0.00450971
4 *18:19 0.00368827
5 *18:17 0.0158758
6 *18:15 0.0158758
7 *18:13 0.0512123
8 *18:11 0.0512123
9 *18:9 0.00916875
10 *18:7 0.00988604
11 *535:io_in[6] *535:io_in[7] 0
12 *18:9 *19:11 0.00138567
13 *18:9 *94:27 0.0298034
14 *18:13 io_oeb[11] 0.211377
15 *18:17 *53:13 0.115578
16 *18:17 *455:21 0.0313396
17 *18:21 io_out[6] 0.00888016
18 *18:21 *24:21 0.00503601
19 *18:21 *92:17 0.00245369
20 *535:io_in[5] *535:io_in[6] 0
*RES
1 io_in[25] *18:7 9.706 
2 *18:7 *18:9 102.22 
3 *18:9 *18:11 4.5 
4 *18:11 *18:13 613.548 
5 *18:13 *18:15 4.5 
6 *18:15 *18:17 286.748 
7 *18:17 *18:19 4.5 
8 *18:19 *18:21 46.74 
9 *18:21 *535:io_in[6] 9.098 
*END

*D_NET *19 0.369545
*CONN
*P io_in[26] I
*I *535:io_in[7] I *D gpios
*CAP
1 io_in[26] 0.000786441
2 *535:io_in[7] 0.000717367
3 *19:21 0.00144296
4 *19:19 0.000725589
5 *19:17 0.0326975
6 *19:15 0.0326975
7 *19:13 0.0851839
8 *19:11 0.0872164
9 *19:7 0.00281891
10 *535:io_in[7] *535:io_in[8] 0
11 *19:11 io_out[26] 0.00660742
12 *19:11 *94:27 0.0142917
13 *19:17 *507:13 0.0566361
14 *19:21 *24:21 0.0208035
15 *19:21 *92:17 0.00196513
16 *19:21 *95:9 0.0235691
17 *535:io_in[6] *535:io_in[7] 0
18 *18:9 *19:11 0.00138567
*RES
1 io_in[26] *19:7 10.01 
2 *19:7 *19:11 46.984 
3 *19:11 *19:13 604.124 
4 *19:13 *19:15 4.5 
5 *19:15 *19:17 289.484 
6 *19:17 *19:19 4.5 
7 *19:19 *19:21 57.38 
8 *19:21 *535:io_in[7] 8.642 
*END

*D_NET *20 0.34647
*CONN
*P io_in[27] I
*I *535:io_in[8] I *D gpios
*CAP
1 io_in[27] 0.074589
2 *535:io_in[8] 0.00692048
3 *20:15 0.00692048
4 *20:13 0.0178807
5 *20:11 0.0178807
6 *20:9 0.0345545
7 *20:7 0.0345545
8 *20:5 0.074589
9 *535:io_in[8] *535:io_in[9] 0
10 *535:io_in[8] *502:7 0.00152303
11 *20:9 *86:17 0.00130677
12 *20:13 *211:5 0.0357814
13 *20:13 *496:13 0
14 *20:13 *512:17 0.0214239
15 *20:13 *530:25 0.0185452
16 *535:io_in[7] *535:io_in[8] 0
*RES
1 io_in[27] *20:5 431.566 
2 *20:5 *20:7 4.5 
3 *20:7 *20:9 231.268 
4 *20:9 *20:11 4.5 
5 *20:11 *20:13 236.892 
6 *20:13 *20:15 4.5 
7 *20:15 *535:io_in[8] 47.31 
*END

*D_NET *21 0.324475
*CONN
*P io_in[28] I
*I *535:io_in[9] I *D gpios
*CAP
1 io_in[28] 0.0702189
2 *535:io_in[9] 0.00692797
3 *21:13 0.0245183
4 *21:11 0.0175904
5 *21:9 0.026769
6 *21:7 0.026769
7 *21:5 0.0702189
8 *535:io_in[9] *535:io_in[10] 0
9 *535:io_in[9] *502:7 0
10 *21:9 *462:9 0.00113444
11 *21:13 *89:9 0.0336454
12 *21:13 *210:5 0.0404552
13 *21:13 *496:13 0.00622759
14 *535:io_in[8] *535:io_in[9] 0
*RES
1 io_in[28] *21:5 406.486 
2 *21:5 *21:7 4.5 
3 *21:7 *21:9 175.636 
4 *21:9 *21:11 4.5 
5 *21:11 *21:13 263.492 
6 *21:13 *535:io_in[9] 49.986 
*END

*D_NET *22 0.271303
*CONN
*P io_in[29] I
*I *535:io_in[10] I *D gpios
*CAP
1 io_in[29] 0.0624382
2 *535:io_in[10] 0.00242037
3 *22:13 0.0124506
4 *22:11 0.0100302
5 *22:9 0.0222574
6 *22:7 0.0222574
7 *22:5 0.0624382
8 *535:io_in[10] *535:io_in[11] 0
9 *22:5 *35:13 0
10 *22:5 *37:13 0.0371762
11 *22:5 *495:13 0.0398343
12 *535:io_in[9] *535:io_in[10] 0
*RES
1 io_in[29] *22:5 602.566 
2 *22:5 *22:7 4.5 
3 *22:7 *22:9 148.276 
4 *22:9 *22:11 4.5 
5 *22:11 *22:13 68.932 
6 *22:13 *535:io_in[10] 19.89 
*END

*D_NET *23 0.418263
*CONN
*P io_in[2] I
*I *538:io_in[2] I *D wrapped_as2650
*CAP
1 io_in[2] 0.00122701
2 *538:io_in[2] 0.000355929
3 *23:21 0.00856535
4 *23:19 0.00820942
5 *23:17 0.0466394
6 *23:15 0.0466394
7 *23:13 0.0520306
8 *23:11 0.0532576
9 *23:11 *39:14 0.000112899
10 *23:13 *534:ram_start[3] 0.0161142
11 *23:17 *89:13 0.0019742
12 *23:17 *467:9 0.0531635
13 *23:17 *490:19 0.00845959
14 *23:21 io_out[29] 0.0243821
15 *23:21 *501:17 0.032859
16 *23:21 *506:17 0.0599163
17 *23:21 *507:9 0.00435694
*RES
1 io_in[2] *23:11 17.3464 
2 *23:11 *23:13 173.586 
3 *23:13 *23:15 4.5 
4 *23:15 *23:17 372.452 
5 *23:17 *23:19 4.5 
6 *23:19 *23:21 263.948 
7 *23:21 *538:io_in[2] 6.818 
*END

*D_NET *24 0.272586
*CONN
*P io_in[30] I
*I *535:io_in[11] I *D gpios
*CAP
1 io_in[30] 0.00477554
2 *535:io_in[11] 0.000739225
3 *24:21 0.00134906
4 *24:19 0.000609835
5 *24:17 0.0147246
6 *24:15 0.0147246
7 *24:13 0.0753675
8 *24:11 0.080143
9 *535:io_in[11] *535:io_in[12] 0
10 *24:17 *59:13 0.0109557
11 *24:17 *461:53 0.000101313
12 *24:17 *487:17 0.0279287
13 *24:21 io_out[6] 0.0120198
14 *24:21 *92:17 0.00206862
15 *24:21 *95:9 0.00123874
16 *535:io_in[10] *535:io_in[11] 0
17 *18:21 *24:21 0.00503601
18 *19:21 *24:21 0.0208035
*RES
1 io_in[30] *24:11 42.9747 
2 *24:11 *24:13 255.868 
3 *24:13 *24:15 4.5 
4 *24:15 *24:17 130.913 
5 *24:17 *24:19 4.5 
6 *24:19 *24:21 56.772 
7 *24:21 *535:io_in[11] 8.794 
*END

*D_NET *25 0.516423
*CONN
*P io_in[31] I
*I *535:io_in[12] I *D gpios
*CAP
1 io_in[31] 0.000772036
2 *535:io_in[12] 0.000725745
3 *25:17 0.00855453
4 *25:13 0.0599711
5 *25:11 0.0521424
6 *25:9 0.0063978
7 *25:7 0.00716984
8 *535:io_in[12] *535:io_in[13] 0.00974832
9 *535:io_in[12] *101:15 0.000896687
10 *535:io_in[12] *102:9 0.00974832
11 *25:9 io_out[32] 0.00046447
12 *25:9 *100:21 0.00443414
13 *25:9 *101:27 0.0283167
14 *25:13 *73:13 0
15 *25:13 *100:17 0.32588
16 *25:17 *26:21 0.000352772
17 *25:17 *232:9 0.000848339
18 *535:io_in[11] *535:io_in[12] 0
*RES
1 io_in[31] *25:7 10.01 
2 *25:7 *25:9 89.2647 
3 *25:9 *25:11 4.5 
4 *25:11 *25:13 270.186 
5 *25:13 *25:17 48.4687 
6 *25:17 *535:io_in[12] 36.17 
*END

*D_NET *26 0.429155
*CONN
*P io_in[32] I
*I *535:io_in[13] I *D gpios
*CAP
1 io_in[32] 0.00235494
2 *535:io_in[13] 0.000739187
3 *26:21 0.00656936
4 *26:19 0.00596644
5 *26:13 0.0461081
6 *26:11 0.0483267
7 *535:io_in[13] *100:9 0.0104691
8 *535:io_in[13] *101:15 0.000941136
9 *535:io_in[13] *102:9 0.000339183
10 *26:11 io_out[32] 0.00318574
11 *26:11 *63:21 0.0143571
12 *26:11 *101:27 0.00142214
13 *26:13 *535:data_in[3] 0.0114051
14 *26:13 *102:17 0.262898
15 *26:13 *111:13 5.55222e-05
16 *26:19 *535:data_in[3] 0.000383671
17 *26:21 *231:9 0
18 *26:21 *237:9 0
19 *26:21 *238:9 0.00353279
20 *535:io_in[12] *535:io_in[13] 0.00974832
21 *25:17 *26:21 0.000352772
*RES
1 io_in[32] *26:11 49.85 
2 *26:11 *26:13 644.024 
3 *26:13 *26:19 5.944 
4 *26:19 *26:21 47.652 