*SPEF "ieee 1481-1999"
*DESIGN "user_project_wrapper"
*DATE "11:11:11 Fri 11 11, 1111"
*VENDOR "OpenRCX"
*PROGRAM "Parallel Extraction"
*VERSION "1.0"
*DESIGN_FLOW "NAME_SCOPE LOCAL" "PIN_CAP NONE"
*DIVIDER /
*DELIMITER :
*BUS_DELIMITER []
*T_UNIT 1 NS
*C_UNIT 1 PF
*R_UNIT 1 OHM
*L_UNIT 1 HENRY

*NAME_MAP
*1 io_in[0]
*2 io_in[10]
*3 io_in[11]
*4 io_in[12]
*5 io_in[13]
*6 io_in[14]
*7 io_in[15]
*8 io_in[16]
*9 io_in[17]
*10 io_in[18]
*11 io_in[19]
*12 io_in[1]
*13 io_in[20]
*14 io_in[21]
*15 io_in[22]
*16 io_in[23]
*17 io_in[24]
*18 io_in[25]
*19 io_in[26]
*20 io_in[27]
*21 io_in[28]
*22 io_in[29]
*23 io_in[2]
*24 io_in[30]
*25 io_in[31]
*26 io_in[32]
*27 io_in[33]
*28 io_in[34]
*29 io_in[35]
*30 io_in[36]
*31 io_in[37]
*32 io_in[3]
*33 io_in[4]
*34 io_in[5]
*35 io_in[6]
*36 io_in[7]
*37 io_in[8]
*38 io_in[9]
*39 io_oeb[0]
*40 io_oeb[10]
*41 io_oeb[11]
*42 io_oeb[12]
*43 io_oeb[13]
*44 io_oeb[14]
*45 io_oeb[15]
*46 io_oeb[16]
*47 io_oeb[17]
*48 io_oeb[18]
*49 io_oeb[19]
*50 io_oeb[1]
*51 io_oeb[20]
*52 io_oeb[21]
*53 io_oeb[22]
*54 io_oeb[23]
*55 io_oeb[24]
*56 io_oeb[25]
*57 io_oeb[26]
*58 io_oeb[27]
*59 io_oeb[28]
*60 io_oeb[29]
*61 io_oeb[2]
*62 io_oeb[30]
*63 io_oeb[31]
*64 io_oeb[32]
*65 io_oeb[33]
*66 io_oeb[34]
*67 io_oeb[35]
*68 io_oeb[36]
*69 io_oeb[37]
*70 io_oeb[3]
*71 io_oeb[4]
*72 io_oeb[5]
*73 io_oeb[6]
*74 io_oeb[7]
*75 io_oeb[8]
*76 io_oeb[9]
*77 io_out[0]
*78 io_out[10]
*79 io_out[11]
*80 io_out[12]
*81 io_out[13]
*82 io_out[14]
*83 io_out[15]
*84 io_out[16]
*85 io_out[17]
*86 io_out[18]
*87 io_out[19]
*88 io_out[1]
*89 io_out[20]
*90 io_out[21]
*91 io_out[22]
*92 io_out[23]
*93 io_out[24]
*94 io_out[25]
*95 io_out[26]
*96 io_out[27]
*97 io_out[28]
*98 io_out[29]
*99 io_out[2]
*100 io_out[30]
*101 io_out[31]
*102 io_out[32]
*103 io_out[33]
*104 io_out[34]
*105 io_out[35]
*106 io_out[36]
*107 io_out[37]
*108 io_out[3]
*109 io_out[4]
*110 io_out[5]
*111 io_out[6]
*112 io_out[7]
*113 io_out[8]
*114 io_out[9]
*115 la_data_in[0]
*116 la_data_in[10]
*117 la_data_in[11]
*118 la_data_in[12]
*119 la_data_in[13]
*120 la_data_in[14]
*121 la_data_in[15]
*122 la_data_in[16]
*123 la_data_in[17]
*124 la_data_in[18]
*125 la_data_in[19]
*126 la_data_in[1]
*127 la_data_in[20]
*128 la_data_in[21]
*129 la_data_in[22]
*130 la_data_in[23]
*131 la_data_in[24]
*132 la_data_in[25]
*133 la_data_in[26]
*134 la_data_in[27]
*135 la_data_in[28]
*136 la_data_in[29]
*137 la_data_in[2]
*138 la_data_in[30]
*139 la_data_in[31]
*140 la_data_in[32]
*141 la_data_in[33]
*142 la_data_in[34]
*143 la_data_in[35]
*144 la_data_in[36]
*145 la_data_in[37]
*146 la_data_in[38]
*147 la_data_in[39]
*148 la_data_in[3]
*149 la_data_in[40]
*150 la_data_in[41]
*151 la_data_in[42]
*152 la_data_in[43]
*153 la_data_in[44]
*154 la_data_in[45]
*155 la_data_in[46]
*156 la_data_in[47]
*157 la_data_in[48]
*158 la_data_in[49]
*159 la_data_in[4]
*160 la_data_in[50]
*161 la_data_in[51]
*162 la_data_in[52]
*163 la_data_in[53]
*164 la_data_in[54]
*165 la_data_in[55]
*166 la_data_in[56]
*167 la_data_in[57]
*168 la_data_in[58]
*169 la_data_in[59]
*170 la_data_in[5]
*171 la_data_in[60]
*172 la_data_in[61]
*173 la_data_in[62]
*174 la_data_in[63]
*175 la_data_in[6]
*176 la_data_in[7]
*177 la_data_in[8]
*178 la_data_in[9]
*179 la_data_out[0]
*180 la_data_out[10]
*181 la_data_out[11]
*182 la_data_out[12]
*183 la_data_out[13]
*184 la_data_out[14]
*185 la_data_out[15]
*186 la_data_out[16]
*187 la_data_out[17]
*188 la_data_out[18]
*189 la_data_out[19]
*190 la_data_out[1]
*191 la_data_out[20]
*192 la_data_out[21]
*193 la_data_out[22]
*194 la_data_out[23]
*195 la_data_out[24]
*196 la_data_out[25]
*197 la_data_out[26]
*198 la_data_out[27]
*199 la_data_out[28]
*200 la_data_out[29]
*201 la_data_out[2]
*202 la_data_out[30]
*203 la_data_out[31]
*204 la_data_out[32]
*205 la_data_out[33]
*206 la_data_out[34]
*207 la_data_out[35]
*208 la_data_out[36]
*209 la_data_out[37]
*210 la_data_out[38]
*211 la_data_out[39]
*212 la_data_out[3]
*213 la_data_out[40]
*214 la_data_out[41]
*215 la_data_out[42]
*216 la_data_out[43]
*217 la_data_out[44]
*218 la_data_out[45]
*219 la_data_out[46]
*220 la_data_out[47]
*221 la_data_out[48]
*222 la_data_out[49]
*223 la_data_out[4]
*224 la_data_out[50]
*225 la_data_out[51]
*226 la_data_out[52]
*227 la_data_out[53]
*228 la_data_out[54]
*229 la_data_out[55]
*230 la_data_out[56]
*231 la_data_out[57]
*232 la_data_out[58]
*233 la_data_out[59]
*234 la_data_out[5]
*235 la_data_out[60]
*236 la_data_out[61]
*237 la_data_out[62]
*238 la_data_out[63]
*239 la_data_out[6]
*240 la_data_out[7]
*241 la_data_out[8]
*242 la_data_out[9]
*243 la_oenb[0]
*244 la_oenb[10]
*245 la_oenb[11]
*246 la_oenb[12]
*247 la_oenb[13]
*248 la_oenb[14]
*249 la_oenb[15]
*250 la_oenb[16]
*251 la_oenb[17]
*252 la_oenb[18]
*253 la_oenb[19]
*254 la_oenb[1]
*255 la_oenb[20]
*256 la_oenb[21]
*257 la_oenb[22]
*258 la_oenb[23]
*259 la_oenb[24]
*260 la_oenb[25]
*261 la_oenb[26]
*262 la_oenb[27]
*263 la_oenb[28]
*264 la_oenb[29]
*265 la_oenb[2]
*266 la_oenb[30]
*267 la_oenb[31]
*268 la_oenb[32]
*269 la_oenb[33]
*270 la_oenb[34]
*271 la_oenb[35]
*272 la_oenb[36]
*273 la_oenb[37]
*274 la_oenb[38]
*275 la_oenb[39]
*276 la_oenb[3]
*277 la_oenb[40]
*278 la_oenb[41]
*279 la_oenb[42]
*280 la_oenb[43]
*281 la_oenb[44]
*282 la_oenb[45]
*283 la_oenb[46]
*284 la_oenb[47]
*285 la_oenb[48]
*286 la_oenb[49]
*287 la_oenb[4]
*288 la_oenb[50]
*289 la_oenb[51]
*290 la_oenb[52]
*291 la_oenb[53]
*292 la_oenb[54]
*293 la_oenb[55]
*294 la_oenb[56]
*295 la_oenb[57]
*296 la_oenb[58]
*297 la_oenb[59]
*298 la_oenb[5]
*299 la_oenb[60]
*300 la_oenb[61]
*301 la_oenb[62]
*302 la_oenb[63]
*303 la_oenb[6]
*304 la_oenb[7]
*305 la_oenb[8]
*306 la_oenb[9]
*307 user_clock2
*308 user_irq[0]
*309 user_irq[1]
*310 user_irq[2]
*313 wb_clk_i
*314 wb_rst_i
*315 wbs_ack_o
*316 wbs_adr_i[0]
*317 wbs_adr_i[10]
*318 wbs_adr_i[11]
*319 wbs_adr_i[12]
*320 wbs_adr_i[13]
*321 wbs_adr_i[14]
*322 wbs_adr_i[15]
*323 wbs_adr_i[16]
*324 wbs_adr_i[17]
*325 wbs_adr_i[18]
*326 wbs_adr_i[19]
*327 wbs_adr_i[1]
*328 wbs_adr_i[20]
*329 wbs_adr_i[21]
*330 wbs_adr_i[22]
*331 wbs_adr_i[23]
*332 wbs_adr_i[24]
*333 wbs_adr_i[25]
*334 wbs_adr_i[26]
*335 wbs_adr_i[27]
*336 wbs_adr_i[28]
*337 wbs_adr_i[29]
*338 wbs_adr_i[2]
*339 wbs_adr_i[30]
*340 wbs_adr_i[31]
*341 wbs_adr_i[3]
*342 wbs_adr_i[4]
*343 wbs_adr_i[5]
*344 wbs_adr_i[6]
*345 wbs_adr_i[7]
*346 wbs_adr_i[8]
*347 wbs_adr_i[9]
*348 wbs_cyc_i
*349 wbs_dat_i[0]
*350 wbs_dat_i[10]
*351 wbs_dat_i[11]
*352 wbs_dat_i[12]
*353 wbs_dat_i[13]
*354 wbs_dat_i[14]
*355 wbs_dat_i[15]
*356 wbs_dat_i[16]
*357 wbs_dat_i[17]
*358 wbs_dat_i[18]
*359 wbs_dat_i[19]
*360 wbs_dat_i[1]
*361 wbs_dat_i[20]
*362 wbs_dat_i[21]
*363 wbs_dat_i[22]
*364 wbs_dat_i[23]
*365 wbs_dat_i[24]
*366 wbs_dat_i[25]
*367 wbs_dat_i[26]
*368 wbs_dat_i[27]
*369 wbs_dat_i[28]
*370 wbs_dat_i[29]
*371 wbs_dat_i[2]
*372 wbs_dat_i[30]
*373 wbs_dat_i[31]
*374 wbs_dat_i[3]
*375 wbs_dat_i[4]
*376 wbs_dat_i[5]
*377 wbs_dat_i[6]
*378 wbs_dat_i[7]
*379 wbs_dat_i[8]
*380 wbs_dat_i[9]
*381 wbs_dat_o[0]
*382 wbs_dat_o[10]
*383 wbs_dat_o[11]
*384 wbs_dat_o[12]
*385 wbs_dat_o[13]
*386 wbs_dat_o[14]
*387 wbs_dat_o[15]
*388 wbs_dat_o[16]
*389 wbs_dat_o[17]
*390 wbs_dat_o[18]
*391 wbs_dat_o[19]
*392 wbs_dat_o[1]
*393 wbs_dat_o[20]
*394 wbs_dat_o[21]
*395 wbs_dat_o[22]
*396 wbs_dat_o[23]
*397 wbs_dat_o[24]
*398 wbs_dat_o[25]
*399 wbs_dat_o[26]
*400 wbs_dat_o[27]
*401 wbs_dat_o[28]
*402 wbs_dat_o[29]
*403 wbs_dat_o[2]
*404 wbs_dat_o[30]
*405 wbs_dat_o[31]
*406 wbs_dat_o[3]
*407 wbs_dat_o[4]
*408 wbs_dat_o[5]
*409 wbs_dat_o[6]
*410 wbs_dat_o[7]
*411 wbs_dat_o[8]
*412 wbs_dat_o[9]
*413 wbs_sel_i[0]
*414 wbs_sel_i[1]
*415 wbs_sel_i[2]
*416 wbs_sel_i[3]
*417 wbs_stb_i
*418 wbs_we_i
*419 DAC_clk
*420 DAC_d1
*421 DAC_d2
*422 DAC_le
*423 RAM_end_addr\[0\]
*424 RAM_end_addr\[10\]
*425 RAM_end_addr\[11\]
*426 RAM_end_addr\[12\]
*427 RAM_end_addr\[13\]
*428 RAM_end_addr\[14\]
*429 RAM_end_addr\[15\]
*430 RAM_end_addr\[1\]
*431 RAM_end_addr\[2\]
*432 RAM_end_addr\[3\]
*433 RAM_end_addr\[4\]
*434 RAM_end_addr\[5\]
*435 RAM_end_addr\[6\]
*436 RAM_end_addr\[7\]
*437 RAM_end_addr\[8\]
*438 RAM_end_addr\[9\]
*439 RAM_start_addr\[0\]
*440 RAM_start_addr\[10\]
*441 RAM_start_addr\[11\]
*442 RAM_start_addr\[12\]
*443 RAM_start_addr\[13\]
*444 RAM_start_addr\[14\]
*445 RAM_start_addr\[15\]
*446 RAM_start_addr\[1\]
*447 RAM_start_addr\[2\]
*448 RAM_start_addr\[3\]
*449 RAM_start_addr\[4\]
*450 RAM_start_addr\[5\]
*451 RAM_start_addr\[6\]
*452 RAM_start_addr\[7\]
*453 RAM_start_addr\[8\]
*454 RAM_start_addr\[9\]
*455 RXD
*456 TXD
*457 WEb_raw
*458 boot_rom_en
*459 bus_addr\[0\]
*460 bus_addr\[1\]
*461 bus_addr\[2\]
*462 bus_addr\[3\]
*463 bus_addr\[4\]
*464 bus_addr\[5\]
*465 bus_cyc
*466 bus_data_gpios\[0\]
*467 bus_data_gpios\[1\]
*468 bus_data_gpios\[2\]
*469 bus_data_gpios\[3\]
*470 bus_data_gpios\[4\]
*471 bus_data_gpios\[5\]
*472 bus_data_gpios\[6\]
*473 bus_data_gpios\[7\]
*474 bus_data_out\[0\]
*475 bus_data_out\[1\]
*476 bus_data_out\[2\]
*477 bus_data_out\[3\]
*478 bus_data_out\[4\]
*479 bus_data_out\[5\]
*480 bus_data_out\[6\]
*481 bus_data_out\[7\]
*482 bus_data_serial_ports\[0\]
*483 bus_data_serial_ports\[1\]
*484 bus_data_serial_ports\[2\]
*485 bus_data_serial_ports\[3\]
*486 bus_data_serial_ports\[4\]
*487 bus_data_serial_ports\[5\]
*488 bus_data_serial_ports\[6\]
*489 bus_data_serial_ports\[7\]
*490 bus_data_sid\[0\]
*491 bus_data_sid\[1\]
*492 bus_data_sid\[2\]
*493 bus_data_sid\[3\]
*494 bus_data_sid\[4\]
*495 bus_data_sid\[5\]
*496 bus_data_sid\[6\]
*497 bus_data_sid\[7\]
*498 bus_data_timers\[0\]
*499 bus_data_timers\[1\]
*500 bus_data_timers\[2\]
*501 bus_data_timers\[3\]
*502 bus_data_timers\[4\]
*503 bus_data_timers\[5\]
*504 bus_data_timers\[6\]
*505 bus_data_timers\[7\]
*506 bus_we_gpios
*507 bus_we_serial_ports
*508 bus_we_sid
*509 bus_we_timers
*510 cs_port\[0\]
*511 cs_port\[1\]
*512 cs_port\[2\]
*513 irq0
*514 irq1
*515 irq2
*516 irq3
*517 irq5
*518 irq6
*519 irq7
*520 le_hi_act
*521 le_lo_act
*522 pwm0
*523 pwm1
*524 pwm2
*525 reset
*526 rom_bus_in\[0\]
*527 rom_bus_in\[1\]
*528 rom_bus_in\[2\]
*529 rom_bus_in\[3\]
*530 rom_bus_in\[4\]
*531 rom_bus_in\[5\]
*532 rom_bus_in\[6\]
*533 rom_bus_in\[7\]
*534 rom_bus_out\[0\]
*535 rom_bus_out\[1\]
*536 rom_bus_out\[2\]
*537 rom_bus_out\[3\]
*538 rom_bus_out\[4\]
*539 rom_bus_out\[5\]
*540 rom_bus_out\[6\]
*541 rom_bus_out\[7\]
*542 tmr0_clk
*543 tmr0_o
*544 tmr1_clk
*545 tmr1_o
*546 avali_logo
*547 boot_rom
*548 gpios
*549 serial_ports
*550 sid
*551 timers
*552 wrapped_as2650

*PORTS
io_in[0] I
io_in[10] I
io_in[11] I
io_in[12] I
io_in[13] I
io_in[14] I
io_in[15] I
io_in[16] I
io_in[17] I
io_in[18] I
io_in[19] I
io_in[1] I
io_in[20] I
io_in[21] I
io_in[22] I
io_in[23] I
io_in[24] I
io_in[25] I
io_in[26] I
io_in[27] I
io_in[28] I
io_in[29] I
io_in[2] I
io_in[30] I
io_in[31] I
io_in[32] I
io_in[33] I
io_in[34] I
io_in[35] I
io_in[36] I
io_in[37] I
io_in[3] I
io_in[4] I
io_in[5] I
io_in[6] I
io_in[7] I
io_in[8] I
io_in[9] I
io_oeb[0] O
io_oeb[10] O
io_oeb[11] O
io_oeb[12] O
io_oeb[13] O
io_oeb[14] O
io_oeb[15] O
io_oeb[16] O
io_oeb[17] O
io_oeb[18] O
io_oeb[19] O
io_oeb[1] O
io_oeb[20] O
io_oeb[21] O
io_oeb[22] O
io_oeb[23] O
io_oeb[24] O
io_oeb[25] O
io_oeb[26] O
io_oeb[27] O
io_oeb[28] O
io_oeb[29] O
io_oeb[2] O
io_oeb[30] O
io_oeb[31] O
io_oeb[32] O
io_oeb[33] O
io_oeb[34] O
io_oeb[35] O
io_oeb[36] O
io_oeb[37] O
io_oeb[3] O
io_oeb[4] O
io_oeb[5] O
io_oeb[6] O
io_oeb[7] O
io_oeb[8] O
io_oeb[9] O
io_out[0] O
io_out[10] O
io_out[11] O
io_out[12] O
io_out[13] O
io_out[14] O
io_out[15] O
io_out[16] O
io_out[17] O
io_out[18] O
io_out[19] O
io_out[1] O
io_out[20] O
io_out[21] O
io_out[22] O
io_out[23] O
io_out[24] O
io_out[25] O
io_out[26] O
io_out[27] O
io_out[28] O
io_out[29] O
io_out[2] O
io_out[30] O
io_out[31] O
io_out[32] O
io_out[33] O
io_out[34] O
io_out[35] O
io_out[36] O
io_out[37] O
io_out[3] O
io_out[4] O
io_out[5] O
io_out[6] O
io_out[7] O
io_out[8] O
io_out[9] O
la_data_in[0] I
la_data_in[10] I
la_data_in[11] I
la_data_in[12] I
la_data_in[13] I
la_data_in[14] I
la_data_in[15] I
la_data_in[16] I
la_data_in[17] I
la_data_in[18] I
la_data_in[19] I
la_data_in[1] I
la_data_in[20] I
la_data_in[21] I
la_data_in[22] I
la_data_in[23] I
la_data_in[24] I
la_data_in[25] I
la_data_in[26] I
la_data_in[27] I
la_data_in[28] I
la_data_in[29] I
la_data_in[2] I
la_data_in[30] I
la_data_in[31] I
la_data_in[32] I
la_data_in[33] I
la_data_in[34] I
la_data_in[35] I
la_data_in[36] I
la_data_in[37] I
la_data_in[38] I
la_data_in[39] I
la_data_in[3] I
la_data_in[40] I
la_data_in[41] I
la_data_in[42] I
la_data_in[43] I
la_data_in[44] I
la_data_in[45] I
la_data_in[46] I
la_data_in[47] I
la_data_in[48] I
la_data_in[49] I
la_data_in[4] I
la_data_in[50] I
la_data_in[51] I
la_data_in[52] I
la_data_in[53] I
la_data_in[54] I
la_data_in[55] I
la_data_in[56] I
la_data_in[57] I
la_data_in[58] I
la_data_in[59] I
la_data_in[5] I
la_data_in[60] I
la_data_in[61] I
la_data_in[62] I
la_data_in[63] I
la_data_in[6] I
la_data_in[7] I
la_data_in[8] I
la_data_in[9] I
la_data_out[0] O
la_data_out[10] O
la_data_out[11] O
la_data_out[12] O
la_data_out[13] O
la_data_out[14] O
la_data_out[15] O
la_data_out[16] O
la_data_out[17] O
la_data_out[18] O
la_data_out[19] O
la_data_out[1] O
la_data_out[20] O
la_data_out[21] O
la_data_out[22] O
la_data_out[23] O
la_data_out[24] O
la_data_out[25] O
la_data_out[26] O
la_data_out[27] O
la_data_out[28] O
la_data_out[29] O
la_data_out[2] O
la_data_out[30] O
la_data_out[31] O
la_data_out[32] O
la_data_out[33] O
la_data_out[34] O
la_data_out[35] O
la_data_out[36] O
la_data_out[37] O
la_data_out[38] O
la_data_out[39] O
la_data_out[3] O
la_data_out[40] O
la_data_out[41] O
la_data_out[42] O
la_data_out[43] O
la_data_out[44] O
la_data_out[45] O
la_data_out[46] O
la_data_out[47] O
la_data_out[48] O
la_data_out[49] O
la_data_out[4] O
la_data_out[50] O
la_data_out[51] O
la_data_out[52] O
la_data_out[53] O
la_data_out[54] O
la_data_out[55] O
la_data_out[56] O
la_data_out[57] O
la_data_out[58] O
la_data_out[59] O
la_data_out[5] O
la_data_out[60] O
la_data_out[61] O
la_data_out[62] O
la_data_out[63] O
la_data_out[6] O
la_data_out[7] O
la_data_out[8] O
la_data_out[9] O
la_oenb[0] I
la_oenb[10] I
la_oenb[11] I
la_oenb[12] I
la_oenb[13] I
la_oenb[14] I
la_oenb[15] I
la_oenb[16] I
la_oenb[17] I
la_oenb[18] I
la_oenb[19] I
la_oenb[1] I
la_oenb[20] I
la_oenb[21] I
la_oenb[22] I
la_oenb[23] I
la_oenb[24] I
la_oenb[25] I
la_oenb[26] I
la_oenb[27] I
la_oenb[28] I
la_oenb[29] I
la_oenb[2] I
la_oenb[30] I
la_oenb[31] I
la_oenb[32] I
la_oenb[33] I
la_oenb[34] I
la_oenb[35] I
la_oenb[36] I
la_oenb[37] I
la_oenb[38] I
la_oenb[39] I
la_oenb[3] I
la_oenb[40] I
la_oenb[41] I
la_oenb[42] I
la_oenb[43] I
la_oenb[44] I
la_oenb[45] I
la_oenb[46] I
la_oenb[47] I
la_oenb[48] I
la_oenb[49] I
la_oenb[4] I
la_oenb[50] I
la_oenb[51] I
la_oenb[52] I
la_oenb[53] I
la_oenb[54] I
la_oenb[55] I
la_oenb[56] I
la_oenb[57] I
la_oenb[58] I
la_oenb[59] I
la_oenb[5] I
la_oenb[60] I
la_oenb[61] I
la_oenb[62] I
la_oenb[63] I
la_oenb[6] I
la_oenb[7] I
la_oenb[8] I
la_oenb[9] I
user_clock2 I
user_irq[0] O
user_irq[1] O
user_irq[2] O
wb_clk_i I
wb_rst_i I
wbs_ack_o O
wbs_adr_i[0] I
wbs_adr_i[10] I
wbs_adr_i[11] I
wbs_adr_i[12] I
wbs_adr_i[13] I
wbs_adr_i[14] I
wbs_adr_i[15] I
wbs_adr_i[16] I
wbs_adr_i[17] I
wbs_adr_i[18] I
wbs_adr_i[19] I
wbs_adr_i[1] I
wbs_adr_i[20] I
wbs_adr_i[21] I
wbs_adr_i[22] I
wbs_adr_i[23] I
wbs_adr_i[24] I
wbs_adr_i[25] I
wbs_adr_i[26] I
wbs_adr_i[27] I
wbs_adr_i[28] I
wbs_adr_i[29] I
wbs_adr_i[2] I
wbs_adr_i[30] I
wbs_adr_i[31] I
wbs_adr_i[3] I
wbs_adr_i[4] I
wbs_adr_i[5] I
wbs_adr_i[6] I
wbs_adr_i[7] I
wbs_adr_i[8] I
wbs_adr_i[9] I
wbs_cyc_i I
wbs_dat_i[0] I
wbs_dat_i[10] I
wbs_dat_i[11] I
wbs_dat_i[12] I
wbs_dat_i[13] I
wbs_dat_i[14] I
wbs_dat_i[15] I
wbs_dat_i[16] I
wbs_dat_i[17] I
wbs_dat_i[18] I
wbs_dat_i[19] I
wbs_dat_i[1] I
wbs_dat_i[20] I
wbs_dat_i[21] I
wbs_dat_i[22] I
wbs_dat_i[23] I
wbs_dat_i[24] I
wbs_dat_i[25] I
wbs_dat_i[26] I
wbs_dat_i[27] I
wbs_dat_i[28] I
wbs_dat_i[29] I
wbs_dat_i[2] I
wbs_dat_i[30] I
wbs_dat_i[31] I
wbs_dat_i[3] I
wbs_dat_i[4] I
wbs_dat_i[5] I
wbs_dat_i[6] I
wbs_dat_i[7] I
wbs_dat_i[8] I
wbs_dat_i[9] I
wbs_dat_o[0] O
wbs_dat_o[10] O
wbs_dat_o[11] O
wbs_dat_o[12] O
wbs_dat_o[13] O
wbs_dat_o[14] O
wbs_dat_o[15] O
wbs_dat_o[16] O
wbs_dat_o[17] O
wbs_dat_o[18] O
wbs_dat_o[19] O
wbs_dat_o[1] O
wbs_dat_o[20] O
wbs_dat_o[21] O
wbs_dat_o[22] O
wbs_dat_o[23] O
wbs_dat_o[24] O
wbs_dat_o[25] O
wbs_dat_o[26] O
wbs_dat_o[27] O
wbs_dat_o[28] O
wbs_dat_o[29] O
wbs_dat_o[2] O
wbs_dat_o[30] O
wbs_dat_o[31] O
wbs_dat_o[3] O
wbs_dat_o[4] O
wbs_dat_o[5] O
wbs_dat_o[6] O
wbs_dat_o[7] O
wbs_dat_o[8] O
wbs_dat_o[9] O
wbs_sel_i[0] I
wbs_sel_i[1] I
wbs_sel_i[2] I
wbs_sel_i[3] I
wbs_stb_i I
wbs_we_i I

*D_NET *1 0.523215
*CONN
*P io_in[0] I
*I *552:io_in[0] I *D wrapped_as2650
*CAP
1 io_in[0] 0.04518
2 *552:io_in[0] 0.000804195
3 *1:13 0.00743495
4 *1:11 0.00663075
5 *1:9 0.0809777
6 *1:7 0.0809777
7 *1:5 0.04518
8 *1:5 la_data_out[22] 0.000445624
9 *1:5 la_data_out[24] 0.000715612
10 *1:5 la_data_out[25] 0.000175636
11 *1:5 la_data_out[27] 0.000445624
12 *1:5 la_data_out[30] 0.000850606
13 *1:5 la_data_out[33] 0.000243133
14 *1:5 la_data_out[36] 0.000648115
15 *1:5 *194:13 0.002027
16 *1:5 *217:13 0.00863715
17 *1:13 *2:5 0.118438
18 *1:13 *12:13 0.000540116
19 *1:13 *23:13 0.00593067
20 *1:13 *33:13 0.112474
21 *1:13 *461:37 0.00445875
*RES
1 io_in[0] *1:5 358.15 
2 *1:5 *1:7 4.5 
3 *1:7 *1:9 538.308 
4 *1:9 *1:11 4.5 
5 *1:11 *1:13 338.124 
6 *1:13 *552:io_in[0] 9.706 
*END

*D_NET *2 0.424095
*CONN
*P io_in[10] I
*I *552:io_in[10] I *D wrapped_as2650
*CAP
1 io_in[10] 0.0274926
2 *552:io_in[10] 0.000930529
3 *2:5 0.0284232
4 *2:5 *23:13 0.0215344
5 *2:5 *37:13 0.220379
6 *2:5 *461:37 0.00679685
7 *2:5 *461:53 0.000100479
8 *1:13 *2:5 0.118438
*RES
1 io_in[10] *2:5 644.518 
2 *2:5 *552:io_in[10] 9.554 
*END

*D_NET *3 0.35793
*CONN
*P io_in[11] I
*I *552:io_in[11] I *D wrapped_as2650
*CAP
1 io_in[11] 0.00105204
2 *552:io_in[11] 0.00282144
3 *3:13 0.052874
4 *3:11 0.0561955
5 *3:7 0.007195
6 *3:11 *79:17 0.00402215
7 *3:13 *45:13 0.233769
*RES
1 io_in[11] *3:7 11.53 
2 *3:7 *3:11 46.376 
3 *3:11 *3:13 632.396 
4 *3:13 *552:io_in[11] 21.562 
*END

*D_NET *4 0.219851
*CONN
*P io_in[12] I
*I *552:io_in[12] I *D wrapped_as2650
*CAP
1 io_in[12] 0.0894304
2 *552:io_in[12] 0.020495
3 *4:7 0.020495
4 *4:5 0.0894304
*RES
1 io_in[12] *4:5 634.182 
2 *4:5 *4:7 4.5 
3 *4:7 *552:io_in[12] 112.67 
*END

*D_NET *5 0.237395
*CONN
*P io_in[13] I
*I *552:io_in[13] I *D wrapped_as2650
*CAP
1 io_in[13] 0.0885711
2 *552:io_in[13] 0.0301265
3 *5:7 0.0301265
4 *5:5 0.0885711
*RES
1 io_in[13] *5:5 629.014 
2 *5:5 *5:7 4.5 
3 *5:7 *552:io_in[13] 166.478 
*END

*D_NET *6 0.380015
*CONN
*P io_in[14] I
*I *552:io_in[14] I *D wrapped_as2650
*CAP
1 io_in[14] 0.00126198
2 *552:io_in[14] 0.0132166
3 *6:15 0.0132166
4 *6:13 0.0549375
5 *6:11 0.0549375
6 *6:9 0.0194139
7 *6:7 0.0206759
8 *6:9 *44:14 0.0114624
9 *6:9 *82:17 0.000652919
10 *6:13 *46:13 0.19024
*RES
1 io_in[14] *6:7 11.53 
2 *6:7 *6:9 132.62 
3 *6:9 *6:11 4.5 
4 *6:11 *6:13 616.892 
5 *6:13 *6:15 4.5 
6 *6:15 *552:io_in[14] 87.742 
*END

*D_NET *7 0.381938
*CONN
*P io_in[15] I
*I *552:io_in[15] I *D wrapped_as2650
*CAP
1 io_in[15] 0.0256864
2 *552:io_in[15] 0.0135831
3 *7:11 0.0135831
4 *7:9 0.0514163
5 *7:7 0.0514163
6 *7:5 0.0256864
7 *7:9 *84:13 0.200567
*RES
1 io_in[15] *7:5 175.75 
2 *7:5 *7:7 4.5 
3 *7:7 *7:9 603.82 
4 *7:9 *7:11 4.5 
5 *7:11 *552:io_in[15] 90.022 
*END

*D_NET *8 0.329569
*CONN
*P io_in[16] I
*I *552:io_in[16] I *D wrapped_as2650
*CAP
1 io_in[16] 0.0236478
2 *552:io_in[16] 0.000830069
3 *8:13 0.0157286
4 *8:11 0.0148985
5 *8:9 0.0445283
6 *8:7 0.0445283
7 *8:5 0.0236478
8 *552:io_in[16] *12:13 0.000970903
9 *552:io_in[16] *37:21 0.00048764
10 *8:9 *85:13 0.160301
*RES
1 io_in[16] *8:5 162.07 
2 *8:5 *8:7 4.5 
3 *8:7 *8:9 506.54 
4 *8:9 *8:11 4.5 
5 *8:11 *8:13 99.332 
6 *8:13 *552:io_in[16] 15.802 
*END

*D_NET *9 0.309462
*CONN
*P io_in[17] I
*I *552:io_in[17] I *D wrapped_as2650
*CAP
1 io_in[17] 0.0229588
2 *552:io_in[17] 0.0164389
3 *9:11 0.0164389
4 *9:9 0.0296198
5 *9:7 0.0296198
6 *9:5 0.0229588
7 *9:9 *81:13 0.171427
*RES
1 io_in[17] *9:5 157.358 
2 *9:5 *9:7 4.5 
3 *9:7 *9:9 413.82 
4 *9:9 *9:11 4.5 
5 *9:11 *552:io_in[17] 108.414 
*END

*D_NET *10 0.168719
*CONN
*P io_in[18] I
*I *552:io_in[18] I *D wrapped_as2650
*CAP
1 io_in[18] 0.0227039
2 *552:io_in[18] 0.0167579
3 *10:11 0.0167579
4 *10:9 0.0448977
5 *10:7 0.0448977
6 *10:5 0.0227039
*RES
1 io_in[18] *10:5 155.23 
2 *10:5 *10:7 4.5 
3 *10:7 *10:9 318.82 
4 *10:9 *10:11 4.5 
5 *10:11 *552:io_in[18] 110.542 
*END

*D_NET *11 0.247818
*CONN
*P io_in[19] I
*I *548:io_in[0] I *D gpios
*CAP
1 io_in[19] 0.061442
2 *548:io_in[0] 0.00183686
3 *11:9 0.028801
4 *11:7 0.0269641
5 *11:5 0.061442
6 *11:5 *216:9 0.0387183
7 *11:9 *31:13 0.00159471
8 *11:9 *93:9 0.027019
*RES
1 io_in[19] *11:5 458.47 
2 *11:5 *11:7 4.5 
3 *11:7 *11:9 221.084 
4 *11:9 *548:io_in[0] 15.33 
*END

*D_NET *12 0.532404
*CONN
*P io_in[1] I
*I *552:io_in[1] I *D wrapped_as2650
*CAP
1 io_in[1] 0.00178949
2 *552:io_in[1] 0.000716719
3 *12:13 0.029457
4 *12:11 0.0287403
5 *12:9 0.0707217
6 *12:7 0.0725112
7 *12:13 *23:13 0.258211
8 *12:13 *37:13 0.0103408
9 *12:13 *37:21 0.0161654
10 *12:13 *460:40 0.000100775
11 *12:13 *461:37 0.00813272
12 *12:13 *461:53 0.000120228
13 *12:13 *474:9 0
14 *12:13 *477:45 0.00802774
15 *12:13 *478:35 0.0246911
16 *12:13 *478:51 0.00116692
17 *552:io_in[16] *12:13 0.000970903
18 *1:13 *12:13 0.000540116
*RES
1 io_in[1] *12:7 16.09 
2 *12:7 *12:9 483.588 
3 *12:9 *12:11 4.5 
4 *12:11 *12:13 679.516 
5 *12:13 *552:io_in[1] 9.098 
*END

*D_NET *13 0.339302
*CONN
*P io_in[20] I
*I *548:io_in[1] I *D gpios
*CAP
1 io_in[20] 0.000867961
2 *548:io_in[1] 0.00430853
3 *13:17 0.0249287
4 *13:15 0.0206201
5 *13:13 0.0571425
6 *13:11 0.0571425
7 *13:9 0.00353418
8 *13:7 0.00440214
9 *13:9 *14:9 0.0201363
10 *13:13 la_data_out[13] 0.00154208
11 *13:13 *464:13 0.0418004
12 *13:17 *96:9 0.102877
*RES
1 io_in[20] *13:7 10.466 
2 *13:7 *13:9 48.716 
3 *13:9 *13:11 4.5 
4 *13:11 *13:13 436.468 
5 *13:13 *13:15 4.5 
6 *13:15 *13:17 263.796 
7 *13:17 *548:io_in[1] 31.442 
*END

*D_NET *14 0.379599
*CONN
*P io_in[21] I
*I *548:io_in[2] I *D gpios
*CAP
1 io_in[21] 0.00088983
2 *548:io_in[2] 0.00738072
3 *14:19 0.00738072
4 *14:17 0.0207316
5 *14:15 0.0207316
6 *14:13 0.0609749
7 *14:11 0.0609749
8 *14:9 0.00707225
9 *14:7 0.00796208
10 *14:9 *90:17 0.0601788
11 *14:13 *471:9 0.000523011
12 *14:13 *507:11 0.00777985
13 *14:17 *92:9 0.0952527
14 *14:17 *185:7 0.00162963
15 *13:9 *14:9 0.0201363
*RES
1 io_in[21] *14:7 10.618 
2 *14:7 *14:9 145.388 
3 *14:9 *14:11 4.5 
4 *14:11 *14:13 415.796 
5 *14:13 *14:15 4.5 
6 *14:15 *14:17 258.78 
7 *14:17 *14:19 4.5 
8 *14:19 *548:io_in[2] 47.462 
*END

*D_NET *15 0.341728
*CONN
*P io_in[22] I
*I *548:io_in[3] I *D gpios
*CAP
1 io_in[22] 0.0190268
2 *548:io_in[3] 0.000853251
3 *15:17 0.00400581
4 *15:13 0.0381219
5 *15:11 0.0349694
6 *15:9 0.063972
7 *15:7 0.063972
8 *15:5 0.0190268
9 *15:13 *477:49 0.00082679
10 *15:13 *519:13 0.0798226
11 *15:17 *91:9 0.01713
12 *15:17 *101:9 0
*RES
1 io_in[22] *15:5 130.15 
2 *15:5 *15:7 4.5 
3 *15:7 *15:9 454.404 
4 *15:9 *15:11 4.5 
5 *15:11 *15:13 334.476 
6 *15:13 *15:17 46.224 
7 *15:17 *548:io_in[3] 9.25 
*END

*D_NET *16 0.598768
*CONN
*P io_in[23] I
*I *548:io_in[4] I *D gpios
*CAP
1 io_in[23] 0.0683084
2 *548:io_in[4] 0.000357056
3 *16:9 0.0101481
4 *16:7 0.00979109
5 *16:5 0.0683084
6 *16:5 *97:13 0
7 *16:9 *19:13 0.240975
8 *16:9 *104:9 0.000523023
9 *16:9 *446:13 0.000373725
10 *16:9 *449:13 0.199983
*RES
1 io_in[23] *16:5 467.286 
2 *16:5 *16:7 4.5 
3 *16:7 *16:9 587.708 
4 *16:9 *548:io_in[4] 6.514 
*END

*D_NET *17 0.330255
*CONN
*P io_in[24] I
*I *548:io_in[5] I *D gpios
*CAP
1 io_in[24] 0.0577226
2 *548:io_in[5] 0.00560507
3 *17:13 0.0421777
4 *17:11 0.0365726
5 *17:9 0.0619674
6 *17:7 0.0619674
7 *17:5 0.0577226
8 *17:9 *187:9 0.00651945
*RES
1 io_in[24] *17:5 411.046 
2 *17:5 *17:7 4.5 
3 *17:7 *17:9 421.876 
4 *17:9 *17:11 4.5 
5 *17:11 *17:13 252.852 
6 *17:13 *548:io_in[5] 40.41 
*END

*D_NET *18 0.473895
*CONN
*P io_in[25] I
*I *548:io_in[6] I *D gpios
*CAP
1 io_in[25] 0.00245686
2 *548:io_in[6] 0
3 *18:13 0.0489829
4 *18:11 0.0489829
5 *18:9 0.0585284
6 *18:7 0.0609853
7 *18:13 *26:13 0.00825433
8 *18:13 *28:13 0.245705
*RES
1 io_in[25] *18:7 21.106 
2 *18:7 *18:9 400.292 
3 *18:9 *18:11 4.5 
4 *18:11 *18:13 649.116 
5 *18:13 *548:io_in[6] 4.5 
*END

*D_NET *19 0.604476
*CONN
*P io_in[26] I
*I *548:io_in[7] I *D gpios
*CAP
1 io_in[26] 0.0095005
2 *548:io_in[7] 0.000315966
3 *19:13 0.00700369
4 *19:11 0.00668772
5 *19:9 0.049884
6 *19:7 0.049884
7 *19:5 0.0095005
8 *19:13 *72:13 0.230724
9 *19:13 *104:9 0
10 *16:9 *19:13 0.240975
*RES
1 io_in[26] *19:5 66.766 
2 *19:5 *19:7 4.5 
3 *19:7 *19:9 341.012 
4 *19:9 *19:11 4.5 
5 *19:11 *19:13 600.78 
6 *19:13 *548:io_in[7] 6.362 
*END

*D_NET *20 0.309732
*CONN
*P io_in[27] I
*I *548:io_in[8] I *D gpios
*CAP
1 io_in[27] 0.0714773
2 *548:io_in[8] 0.00456982
3 *20:13 0.0415273
4 *20:11 0.0369575
5 *20:9 0.0367919
6 *20:7 0.0367919
7 *20:5 0.0714773
8 *20:9 *188:9 0.0101387
*RES
1 io_in[27] *20:5 413.478 
2 *20:5 *20:7 4.5 
3 *20:7 *20:9 256.348 
4 *20:9 *20:11 4.5 
5 *20:11 *20:13 255.892 
6 *20:13 *548:io_in[8] 33.57 
*END

*D_NET *21 0.322034
*CONN
*P io_in[28] I
*I *548:io_in[9] I *D gpios
*CAP
1 io_in[28] 0.0718945
2 *548:io_in[9] 0.00319688
3 *21:13 0.0400925
4 *21:11 0.0368956
5 *21:9 0.0270541
6 *21:7 0.0270541
7 *21:5 0.0718945
8 *21:9 *203:9 0.0248891
9 *21:13 *113:10 0.019063
*RES
1 io_in[28] *21:5 415.758 
2 *21:5 *21:7 4.5 
3 *21:7 *21:9 208.012 
4 *21:9 *21:11 4.5 
5 *21:11 *21:13 255.436 
6 *21:13 *548:io_in[9] 24.45 
*END

*D_NET *22 0.38947
*CONN
*P io_in[29] I
*I *548:io_in[10] I *D gpios
*CAP
1 io_in[29] 0.012398
2 *548:io_in[10] 0
3 *22:13 0.0456111
4 *22:11 0.0456111
5 *22:9 0.0197256
6 *22:7 0.0197256
7 *22:5 0.012398
8 *22:5 *539:7 0
9 *22:9 *527:21 2.29679e-05
10 *22:9 *535:9 0
11 *22:9 *538:9 0.0124371
12 *22:9 *539:9 0
13 *22:13 *26:5 0
14 *22:13 *28:13 0.00941012
15 *22:13 *102:6 0.0103066
16 *22:13 *452:13 0.201824
*RES
1 io_in[29] *22:5 87.286 
2 *22:5 *22:7 4.5 
3 *22:7 *22:9 171.076 
4 *22:9 *22:11 4.5 
5 *22:11 *22:13 585.732 
6 *22:13 *548:io_in[10] 4.5 
*END

*D_NET *23 0.642106
*CONN
*P io_in[2] I
*I *552:io_in[2] I *D wrapped_as2650
*CAP
1 io_in[2] 0.00892315
2 *552:io_in[2] 0.00075141
3 *23:13 0.00342625
4 *23:11 0.00267484
5 *23:9 0.0630113
6 *23:7 0.0630113
7 *23:5 0.00892315
8 *23:13 *37:13 0.197698
9 *23:13 *461:37 0.0078936
10 *23:13 *461:53 0.000116693
11 *1:13 *23:13 0.00593067
12 *2:5 *23:13 0.0215344
13 *12:13 *23:13 0.258211
*RES
1 io_in[2] *23:5 61.75 
2 *23:5 *23:7 4.5 
3 *23:7 *23:9 430.236 
4 *23:9 *23:11 4.5 
5 *23:11 *23:13 624.188 
6 *23:13 *552:io_in[2] 9.25 
*END

*D_NET *24 0.390339
*CONN
*P io_in[30] I
*I *548:io_in[11] I *D gpios
*CAP
1 io_in[30] 0.0121024
2 *548:io_in[11] 0.00137485
3 *24:13 0.0461619
4 *24:11 0.0447871
5 *24:9 0.0120887
6 *24:7 0.0120887
7 *24:5 0.0121024
8 *24:9 *536:9 0.0078009
9 *24:9 *540:9 0
10 *24:13 *25:13 0.241832
11 *24:13 *445:13 0
*RES
1 io_in[30] *24:5 85.006 
2 *24:5 *24:7 4.5 
3 *24:7 *24:9 106.02 
4 *24:9 *24:11 4.5 
5 *24:11 *24:13 589.836 
6 *24:13 *548:io_in[11] 11.53 
*END

*D_NET *25 0.533487
*CONN
*P io_in[31] I
*I *548:io_in[12] I *D gpios
*CAP
1 io_in[31] 0.0118067
2 *548:io_in[12] 0.00117865
3 *25:13 0.00442882
4 *25:11 0.00325017
5 *25:9 0.00682555
6 *25:7 0.00682555
7 *25:5 0.0118067
8 *25:9 *345:13 0.000116295
9 *25:9 *380:13 0
10 *25:9 *412:13 0.00188961
11 *25:9 *540:9 0
12 *25:13 *95:9 0.243527
13 *24:13 *25:13 0.241832
*RES
1 io_in[31] *25:5 82.726 
2 *25:5 *25:7 4.5 
3 *25:7 *25:9 48.716 
4 *25:9 *25:11 4.5 
5 *25:11 *25:13 593.94 
6 *25:13 *548:io_in[12] 11.378 
*END

*D_NET *26 0.219328
*CONN
*P io_in[32] I
*I *548:io_in[13] I *D gpios
*CAP
1 io_in[32] 0.066967
2 *548:io_in[13] 0.00010256
3 *26:13 0.00667824
4 *26:11 0.00702887
5 *26:5 0.0674202
6 *26:5 *110:13 0.00334992
7 *26:5 *241:15 0.00263088
8 *26:5 *418:17 0.00913174
9 *26:5 *440:13 0.0267921
10 *26:13 *27:13 0.019929
11 *26:13 *28:13 0.001043
12 *26:13 *72:13 0
13 *18:13 *26:13 0.00825433
14 *22:13 *26:5 0
*RES
1 io_in[32] *26:5 583.262 
2 *26:5 *26:11 11.66 
3 *26:11 *26:13 95.228 
4 *26:13 *548:io_in[13] 5.146 
*END

*D_NET *27 0.251906
*CONN
*P io_in[33] I
*I *548:io_in[14] I *D gpios
*CAP
1 io_in[33] 0.0612662
2 *548:io_in[14] 0.000124429
3 *27:13 0.00326333
4 *27:11 0.0031389
5 *27:9 0.00925845
6 *27:7 0.00925845
7 *27:5 0.0612662
8 *27:5 *525:23 0.0197685
9 *27:5 *526:13 0.00257323
10 *27:5 *526:15 0.0602065
11 *27:9 *547:bus_in[1] 0
12 *27:13 *28:13 4.62622e-05
13 *27:13 *72:13 0.00180691
14 *26:13 *27:13 0.019929
*RES
1 io_in[33] *27:5 629.926 
2 *27:5 *27:7 4.5 
3 *27:7 *27:9 60.268 
4 *27:9 *27:11 4.5 
5 *27:11 *27:13 50.388 
6 *27:13 *548:io_in[14] 5.298 
*END

*D_NET *28 0.468511
*CONN
*P io_in[34] I
*I *548:io_in[15] I *D gpios
*CAP
1 io_in[34] 0.00975123
2 *548:io_in[15] 0
3 *28:13 0.00808312
4 *28:11 0.00808312
5 *28:9 0.0174476
6 *28:7 0.0174476
7 *28:5 0.00975123
8 *28:13 *102:6 0.00694172
9 *28:13 *452:13 0.0650575
10 *28:13 *491:9 0.0697436
11 *18:13 *28:13 0.245705
12 *22:13 *28:13 0.00941012
13 *26:13 *28:13 0.001043
14 *27:13 *28:13 4.62622e-05
*RES
1 io_in[34] *28:5 66.766 
2 *28:5 *28:7 4.5 
3 *28:7 *28:9 116.812 
4 *28:9 *28:11 4.5 
5 *28:11 *28:13 615.372 
6 *28:13 *548:io_in[15] 4.5 
*END

*D_NET *31 0.291268
*CONN
*P io_in[37] I
*I *549:io_in I *D serial_ports
*CAP
1 io_in[37] 0.0475286
2 *549:io_in 0.02962
3 *31:15 0.02962
4 *31:13 0.00793213
5 *31:11 0.00793213
6 *31:9 0.0451274
7 *31:7 0.0451274
8 *31:5 0.0475286
9 *549:io_in *222:9 0
10 *549:io_in *228:9 0.00376612
11 *31:5 *344:11 0
12 *31:5 *356:9 0
13 *31:5 *359:9 0.000103796
14 *31:5 *387:17 0
15 *31:5 *391:17 0.00647174
16 *31:5 *402:17 0.00641906
17 *31:5 *412:19 0
18 *31:9 la_data_out[10] 0
19 *31:9 *405:5 0
20 *31:9 *465:117 0
21 *31:13 *223:15 0.00629702