*SPEF "ieee 1481-1999"
*DESIGN "user_project_wrapper"
*DATE "11:11:11 Fri 11 11, 1111"
*VENDOR "OpenRCX"
*PROGRAM "Parallel Extraction"
*VERSION "1.0"
*DESIGN_FLOW "NAME_SCOPE LOCAL" "PIN_CAP NONE"
*DIVIDER /
*DELIMITER :
*BUS_DELIMITER []
*T_UNIT 1 NS
*C_UNIT 1 PF
*R_UNIT 1 OHM
*L_UNIT 1 HENRY

*NAME_MAP
*1 io_in[0]
*2 io_in[10]
*3 io_in[11]
*4 io_in[12]
*5 io_in[13]
*6 io_in[14]
*7 io_in[15]
*8 io_in[16]
*9 io_in[17]
*10 io_in[18]
*11 io_in[19]
*12 io_in[1]
*13 io_in[20]
*14 io_in[21]
*15 io_in[22]
*16 io_in[23]
*17 io_in[24]
*18 io_in[25]
*19 io_in[26]
*20 io_in[27]
*21 io_in[28]
*22 io_in[29]
*23 io_in[2]
*24 io_in[30]
*25 io_in[31]
*26 io_in[32]
*27 io_in[33]
*28 io_in[34]
*29 io_in[35]
*30 io_in[36]
*31 io_in[37]
*32 io_in[3]
*33 io_in[4]
*34 io_in[5]
*35 io_in[6]
*36 io_in[7]
*37 io_in[8]
*38 io_in[9]
*39 io_oeb[0]
*40 io_oeb[10]
*41 io_oeb[11]
*42 io_oeb[12]
*43 io_oeb[13]
*44 io_oeb[14]
*45 io_oeb[15]
*46 io_oeb[16]
*47 io_oeb[17]
*48 io_oeb[18]
*49 io_oeb[19]
*50 io_oeb[1]
*51 io_oeb[20]
*52 io_oeb[21]
*53 io_oeb[22]
*54 io_oeb[23]
*55 io_oeb[24]
*56 io_oeb[25]
*57 io_oeb[26]
*58 io_oeb[27]
*59 io_oeb[28]
*60 io_oeb[29]
*61 io_oeb[2]
*62 io_oeb[30]
*63 io_oeb[31]
*64 io_oeb[32]
*65 io_oeb[33]
*66 io_oeb[34]
*67 io_oeb[35]
*68 io_oeb[36]
*69 io_oeb[37]
*70 io_oeb[3]
*71 io_oeb[4]
*72 io_oeb[5]
*73 io_oeb[6]
*74 io_oeb[7]
*75 io_oeb[8]
*76 io_oeb[9]
*77 io_out[0]
*78 io_out[10]
*79 io_out[11]
*80 io_out[12]
*81 io_out[13]
*82 io_out[14]
*83 io_out[15]
*84 io_out[16]
*85 io_out[17]
*86 io_out[18]
*87 io_out[19]
*88 io_out[1]
*89 io_out[20]
*90 io_out[21]
*91 io_out[22]
*92 io_out[23]
*93 io_out[24]
*94 io_out[25]
*95 io_out[26]
*96 io_out[27]
*97 io_out[28]
*98 io_out[29]
*99 io_out[2]
*100 io_out[30]
*101 io_out[31]
*102 io_out[32]
*103 io_out[33]
*104 io_out[34]
*105 io_out[35]
*106 io_out[36]
*107 io_out[37]
*108 io_out[3]
*109 io_out[4]
*110 io_out[5]
*111 io_out[6]
*112 io_out[7]
*113 io_out[8]
*114 io_out[9]
*115 la_data_in[0]
*116 la_data_in[10]
*117 la_data_in[11]
*118 la_data_in[12]
*119 la_data_in[13]
*120 la_data_in[14]
*121 la_data_in[15]
*122 la_data_in[16]
*123 la_data_in[17]
*124 la_data_in[18]
*125 la_data_in[19]
*126 la_data_in[1]
*127 la_data_in[20]
*128 la_data_in[21]
*129 la_data_in[22]
*130 la_data_in[23]
*131 la_data_in[24]
*132 la_data_in[25]
*133 la_data_in[26]
*134 la_data_in[27]
*135 la_data_in[28]
*136 la_data_in[29]
*137 la_data_in[2]
*138 la_data_in[30]
*139 la_data_in[31]
*140 la_data_in[32]
*141 la_data_in[33]
*142 la_data_in[34]
*143 la_data_in[35]
*144 la_data_in[36]
*145 la_data_in[37]
*146 la_data_in[38]
*147 la_data_in[39]
*148 la_data_in[3]
*149 la_data_in[40]
*150 la_data_in[41]
*151 la_data_in[42]
*152 la_data_in[43]
*153 la_data_in[44]
*154 la_data_in[45]
*155 la_data_in[46]
*156 la_data_in[47]
*157 la_data_in[48]
*158 la_data_in[49]
*159 la_data_in[4]
*160 la_data_in[50]
*161 la_data_in[51]
*162 la_data_in[52]
*163 la_data_in[53]
*164 la_data_in[54]
*165 la_data_in[55]
*166 la_data_in[56]
*167 la_data_in[57]
*168 la_data_in[58]
*169 la_data_in[59]
*170 la_data_in[5]
*171 la_data_in[60]
*172 la_data_in[61]
*173 la_data_in[62]
*174 la_data_in[63]
*175 la_data_in[6]
*176 la_data_in[7]
*177 la_data_in[8]
*178 la_data_in[9]
*179 la_data_out[0]
*180 la_data_out[10]
*181 la_data_out[11]
*182 la_data_out[12]
*183 la_data_out[13]
*184 la_data_out[14]
*185 la_data_out[15]
*186 la_data_out[16]
*187 la_data_out[17]
*188 la_data_out[18]
*189 la_data_out[19]
*190 la_data_out[1]
*191 la_data_out[20]
*192 la_data_out[21]
*193 la_data_out[22]
*194 la_data_out[23]
*195 la_data_out[24]
*196 la_data_out[25]
*197 la_data_out[26]
*198 la_data_out[27]
*199 la_data_out[28]
*200 la_data_out[29]
*201 la_data_out[2]
*202 la_data_out[30]
*203 la_data_out[31]
*204 la_data_out[32]
*205 la_data_out[33]
*206 la_data_out[34]
*207 la_data_out[35]
*208 la_data_out[36]
*209 la_data_out[37]
*210 la_data_out[38]
*211 la_data_out[39]
*212 la_data_out[3]
*213 la_data_out[40]
*214 la_data_out[41]
*215 la_data_out[42]
*216 la_data_out[43]
*217 la_data_out[44]
*218 la_data_out[45]
*219 la_data_out[46]
*220 la_data_out[47]
*221 la_data_out[48]
*222 la_data_out[49]
*223 la_data_out[4]
*224 la_data_out[50]
*225 la_data_out[51]
*226 la_data_out[52]
*227 la_data_out[53]
*228 la_data_out[54]
*229 la_data_out[55]
*230 la_data_out[56]
*231 la_data_out[57]
*232 la_data_out[58]
*233 la_data_out[59]
*234 la_data_out[5]
*235 la_data_out[60]
*236 la_data_out[61]
*237 la_data_out[62]
*238 la_data_out[63]
*239 la_data_out[6]
*240 la_data_out[7]
*241 la_data_out[8]
*242 la_data_out[9]
*243 la_oenb[0]
*244 la_oenb[10]
*245 la_oenb[11]
*246 la_oenb[12]
*247 la_oenb[13]
*248 la_oenb[14]
*249 la_oenb[15]
*250 la_oenb[16]
*251 la_oenb[17]
*252 la_oenb[18]
*253 la_oenb[19]
*254 la_oenb[1]
*255 la_oenb[20]
*256 la_oenb[21]
*257 la_oenb[22]
*258 la_oenb[23]
*259 la_oenb[24]
*260 la_oenb[25]
*261 la_oenb[26]
*262 la_oenb[27]
*263 la_oenb[28]
*264 la_oenb[29]
*265 la_oenb[2]
*266 la_oenb[30]
*267 la_oenb[31]
*268 la_oenb[32]
*269 la_oenb[33]
*270 la_oenb[34]
*271 la_oenb[35]
*272 la_oenb[36]
*273 la_oenb[37]
*274 la_oenb[38]
*275 la_oenb[39]
*276 la_oenb[3]
*277 la_oenb[40]
*278 la_oenb[41]
*279 la_oenb[42]
*280 la_oenb[43]
*281 la_oenb[44]
*282 la_oenb[45]
*283 la_oenb[46]
*284 la_oenb[47]
*285 la_oenb[48]
*286 la_oenb[49]
*287 la_oenb[4]
*288 la_oenb[50]
*289 la_oenb[51]
*290 la_oenb[52]
*291 la_oenb[53]
*292 la_oenb[54]
*293 la_oenb[55]
*294 la_oenb[56]
*295 la_oenb[57]
*296 la_oenb[58]
*297 la_oenb[59]
*298 la_oenb[5]
*299 la_oenb[60]
*300 la_oenb[61]
*301 la_oenb[62]
*302 la_oenb[63]
*303 la_oenb[6]
*304 la_oenb[7]
*305 la_oenb[8]
*306 la_oenb[9]
*307 user_clock2
*308 user_irq[0]
*309 user_irq[1]
*310 user_irq[2]
*313 wb_clk_i
*314 wb_rst_i
*315 wbs_ack_o
*316 wbs_adr_i[0]
*317 wbs_adr_i[10]
*318 wbs_adr_i[11]
*319 wbs_adr_i[12]
*320 wbs_adr_i[13]
*321 wbs_adr_i[14]
*322 wbs_adr_i[15]
*323 wbs_adr_i[16]
*324 wbs_adr_i[17]
*325 wbs_adr_i[18]
*326 wbs_adr_i[19]
*327 wbs_adr_i[1]
*328 wbs_adr_i[20]
*329 wbs_adr_i[21]
*330 wbs_adr_i[22]
*331 wbs_adr_i[23]
*332 wbs_adr_i[24]
*333 wbs_adr_i[25]
*334 wbs_adr_i[26]
*335 wbs_adr_i[27]
*336 wbs_adr_i[28]
*337 wbs_adr_i[29]
*338 wbs_adr_i[2]
*339 wbs_adr_i[30]
*340 wbs_adr_i[31]
*341 wbs_adr_i[3]
*342 wbs_adr_i[4]
*343 wbs_adr_i[5]
*344 wbs_adr_i[6]
*345 wbs_adr_i[7]
*346 wbs_adr_i[8]
*347 wbs_adr_i[9]
*348 wbs_cyc_i
*349 wbs_dat_i[0]
*350 wbs_dat_i[10]
*351 wbs_dat_i[11]
*352 wbs_dat_i[12]
*353 wbs_dat_i[13]
*354 wbs_dat_i[14]
*355 wbs_dat_i[15]
*356 wbs_dat_i[16]
*357 wbs_dat_i[17]
*358 wbs_dat_i[18]
*359 wbs_dat_i[19]
*360 wbs_dat_i[1]
*361 wbs_dat_i[20]
*362 wbs_dat_i[21]
*363 wbs_dat_i[22]
*364 wbs_dat_i[23]
*365 wbs_dat_i[24]
*366 wbs_dat_i[25]
*367 wbs_dat_i[26]
*368 wbs_dat_i[27]
*369 wbs_dat_i[28]
*370 wbs_dat_i[29]
*371 wbs_dat_i[2]
*372 wbs_dat_i[30]
*373 wbs_dat_i[31]
*374 wbs_dat_i[3]
*375 wbs_dat_i[4]
*376 wbs_dat_i[5]
*377 wbs_dat_i[6]
*378 wbs_dat_i[7]
*379 wbs_dat_i[8]
*380 wbs_dat_i[9]
*381 wbs_dat_o[0]
*382 wbs_dat_o[10]
*383 wbs_dat_o[11]
*384 wbs_dat_o[12]
*385 wbs_dat_o[13]
*386 wbs_dat_o[14]
*387 wbs_dat_o[15]
*388 wbs_dat_o[16]
*389 wbs_dat_o[17]
*390 wbs_dat_o[18]
*391 wbs_dat_o[19]
*392 wbs_dat_o[1]
*393 wbs_dat_o[20]
*394 wbs_dat_o[21]
*395 wbs_dat_o[22]
*396 wbs_dat_o[23]
*397 wbs_dat_o[24]
*398 wbs_dat_o[25]
*399 wbs_dat_o[26]
*400 wbs_dat_o[27]
*401 wbs_dat_o[28]
*402 wbs_dat_o[29]
*403 wbs_dat_o[2]
*404 wbs_dat_o[30]
*405 wbs_dat_o[31]
*406 wbs_dat_o[3]
*407 wbs_dat_o[4]
*408 wbs_dat_o[5]
*409 wbs_dat_o[6]
*410 wbs_dat_o[7]
*411 wbs_dat_o[8]
*412 wbs_dat_o[9]
*413 wbs_sel_i[0]
*414 wbs_sel_i[1]
*415 wbs_sel_i[2]
*416 wbs_sel_i[3]
*417 wbs_stb_i
*418 wbs_we_i
*419 avali_logo
*420 wrapped_as2650

*PORTS
io_in[0] I
io_in[10] I
io_in[11] I
io_in[12] I
io_in[13] I
io_in[14] I
io_in[15] I
io_in[16] I
io_in[17] I
io_in[18] I
io_in[19] I
io_in[1] I
io_in[20] I
io_in[21] I
io_in[22] I
io_in[23] I
io_in[24] I
io_in[25] I
io_in[26] I
io_in[27] I
io_in[28] I
io_in[29] I
io_in[2] I
io_in[30] I
io_in[31] I
io_in[32] I
io_in[33] I
io_in[34] I
io_in[35] I
io_in[36] I
io_in[37] I
io_in[3] I
io_in[4] I
io_in[5] I
io_in[6] I
io_in[7] I
io_in[8] I
io_in[9] I
io_oeb[0] O
io_oeb[10] O
io_oeb[11] O
io_oeb[12] O
io_oeb[13] O
io_oeb[14] O
io_oeb[15] O
io_oeb[16] O
io_oeb[17] O
io_oeb[18] O
io_oeb[19] O
io_oeb[1] O
io_oeb[20] O
io_oeb[21] O
io_oeb[22] O
io_oeb[23] O
io_oeb[24] O
io_oeb[25] O
io_oeb[26] O
io_oeb[27] O
io_oeb[28] O
io_oeb[29] O
io_oeb[2] O
io_oeb[30] O
io_oeb[31] O
io_oeb[32] O
io_oeb[33] O
io_oeb[34] O
io_oeb[35] O
io_oeb[36] O
io_oeb[37] O
io_oeb[3] O
io_oeb[4] O
io_oeb[5] O
io_oeb[6] O
io_oeb[7] O
io_oeb[8] O
io_oeb[9] O
io_out[0] O
io_out[10] O
io_out[11] O
io_out[12] O
io_out[13] O
io_out[14] O
io_out[15] O
io_out[16] O
io_out[17] O
io_out[18] O
io_out[19] O
io_out[1] O
io_out[20] O
io_out[21] O
io_out[22] O
io_out[23] O
io_out[24] O
io_out[25] O
io_out[26] O
io_out[27] O
io_out[28] O
io_out[29] O
io_out[2] O
io_out[30] O
io_out[31] O
io_out[32] O
io_out[33] O
io_out[34] O
io_out[35] O
io_out[36] O
io_out[37] O
io_out[3] O
io_out[4] O
io_out[5] O
io_out[6] O
io_out[7] O
io_out[8] O
io_out[9] O
la_data_in[0] I
la_data_in[10] I
la_data_in[11] I
la_data_in[12] I
la_data_in[13] I
la_data_in[14] I
la_data_in[15] I
la_data_in[16] I
la_data_in[17] I
la_data_in[18] I
la_data_in[19] I
la_data_in[1] I
la_data_in[20] I
la_data_in[21] I
la_data_in[22] I
la_data_in[23] I
la_data_in[24] I
la_data_in[25] I
la_data_in[26] I
la_data_in[27] I
la_data_in[28] I
la_data_in[29] I
la_data_in[2] I
la_data_in[30] I
la_data_in[31] I
la_data_in[32] I
la_data_in[33] I
la_data_in[34] I
la_data_in[35] I
la_data_in[36] I
la_data_in[37] I
la_data_in[38] I
la_data_in[39] I
la_data_in[3] I
la_data_in[40] I
la_data_in[41] I
la_data_in[42] I
la_data_in[43] I
la_data_in[44] I
la_data_in[45] I
la_data_in[46] I
la_data_in[47] I
la_data_in[48] I
la_data_in[49] I
la_data_in[4] I
la_data_in[50] I
la_data_in[51] I
la_data_in[52] I
la_data_in[53] I
la_data_in[54] I
la_data_in[55] I
la_data_in[56] I
la_data_in[57] I
la_data_in[58] I
la_data_in[59] I
la_data_in[5] I
la_data_in[60] I
la_data_in[61] I
la_data_in[62] I
la_data_in[63] I
la_data_in[6] I
la_data_in[7] I
la_data_in[8] I
la_data_in[9] I
la_data_out[0] O
la_data_out[10] O
la_data_out[11] O
la_data_out[12] O
la_data_out[13] O
la_data_out[14] O
la_data_out[15] O
la_data_out[16] O
la_data_out[17] O
la_data_out[18] O
la_data_out[19] O
la_data_out[1] O
la_data_out[20] O
la_data_out[21] O
la_data_out[22] O
la_data_out[23] O
la_data_out[24] O
la_data_out[25] O
la_data_out[26] O
la_data_out[27] O
la_data_out[28] O
la_data_out[29] O
la_data_out[2] O
la_data_out[30] O
la_data_out[31] O
la_data_out[32] O
la_data_out[33] O
la_data_out[34] O
la_data_out[35] O
la_data_out[36] O
la_data_out[37] O
la_data_out[38] O
la_data_out[39] O
la_data_out[3] O
la_data_out[40] O
la_data_out[41] O
la_data_out[42] O
la_data_out[43] O
la_data_out[44] O
la_data_out[45] O
la_data_out[46] O
la_data_out[47] O
la_data_out[48] O
la_data_out[49] O
la_data_out[4] O
la_data_out[50] O
la_data_out[51] O
la_data_out[52] O
la_data_out[53] O
la_data_out[54] O
la_data_out[55] O
la_data_out[56] O
la_data_out[57] O
la_data_out[58] O
la_data_out[59] O
la_data_out[5] O
la_data_out[60] O
la_data_out[61] O
la_data_out[62] O
la_data_out[63] O
la_data_out[6] O
la_data_out[7] O
la_data_out[8] O
la_data_out[9] O
la_oenb[0] I
la_oenb[10] I
la_oenb[11] I
la_oenb[12] I
la_oenb[13] I
la_oenb[14] I
la_oenb[15] I
la_oenb[16] I
la_oenb[17] I
la_oenb[18] I
la_oenb[19] I
la_oenb[1] I
la_oenb[20] I
la_oenb[21] I
la_oenb[22] I
la_oenb[23] I
la_oenb[24] I
la_oenb[25] I
la_oenb[26] I
la_oenb[27] I
la_oenb[28] I
la_oenb[29] I
la_oenb[2] I
la_oenb[30] I
la_oenb[31] I
la_oenb[32] I
la_oenb[33] I
la_oenb[34] I
la_oenb[35] I
la_oenb[36] I
la_oenb[37] I
la_oenb[38] I
la_oenb[39] I
la_oenb[3] I
la_oenb[40] I
la_oenb[41] I
la_oenb[42] I
la_oenb[43] I
la_oenb[44] I
la_oenb[45] I
la_oenb[46] I
la_oenb[47] I
la_oenb[48] I
la_oenb[49] I
la_oenb[4] I
la_oenb[50] I
la_oenb[51] I
la_oenb[52] I
la_oenb[53] I
la_oenb[54] I
la_oenb[55] I
la_oenb[56] I
la_oenb[57] I
la_oenb[58] I
la_oenb[59] I
la_oenb[5] I
la_oenb[60] I
la_oenb[61] I
la_oenb[62] I
la_oenb[63] I
la_oenb[6] I
la_oenb[7] I
la_oenb[8] I
la_oenb[9] I
user_clock2 I
user_irq[0] O
user_irq[1] O
user_irq[2] O
wb_clk_i I
wb_rst_i I
wbs_ack_o O
wbs_adr_i[0] I
wbs_adr_i[10] I
wbs_adr_i[11] I
wbs_adr_i[12] I
wbs_adr_i[13] I
wbs_adr_i[14] I
wbs_adr_i[15] I
wbs_adr_i[16] I
wbs_adr_i[17] I
wbs_adr_i[18] I
wbs_adr_i[19] I
wbs_adr_i[1] I
wbs_adr_i[20] I
wbs_adr_i[21] I
wbs_adr_i[22] I
wbs_adr_i[23] I
wbs_adr_i[24] I
wbs_adr_i[25] I
wbs_adr_i[26] I
wbs_adr_i[27] I
wbs_adr_i[28] I
wbs_adr_i[29] I
wbs_adr_i[2] I
wbs_adr_i[30] I
wbs_adr_i[31] I
wbs_adr_i[3] I
wbs_adr_i[4] I
wbs_adr_i[5] I
wbs_adr_i[6] I
wbs_adr_i[7] I
wbs_adr_i[8] I
wbs_adr_i[9] I
wbs_cyc_i I
wbs_dat_i[0] I
wbs_dat_i[10] I
wbs_dat_i[11] I
wbs_dat_i[12] I
wbs_dat_i[13] I
wbs_dat_i[14] I
wbs_dat_i[15] I
wbs_dat_i[16] I
wbs_dat_i[17] I
wbs_dat_i[18] I
wbs_dat_i[19] I
wbs_dat_i[1] I
wbs_dat_i[20] I
wbs_dat_i[21] I
wbs_dat_i[22] I
wbs_dat_i[23] I
wbs_dat_i[24] I
wbs_dat_i[25] I
wbs_dat_i[26] I
wbs_dat_i[27] I
wbs_dat_i[28] I
wbs_dat_i[29] I
wbs_dat_i[2] I
wbs_dat_i[30] I
wbs_dat_i[31] I
wbs_dat_i[3] I
wbs_dat_i[4] I
wbs_dat_i[5] I
wbs_dat_i[6] I
wbs_dat_i[7] I
wbs_dat_i[8] I
wbs_dat_i[9] I
wbs_dat_o[0] O
wbs_dat_o[10] O
wbs_dat_o[11] O
wbs_dat_o[12] O
wbs_dat_o[13] O
wbs_dat_o[14] O
wbs_dat_o[15] O
wbs_dat_o[16] O
wbs_dat_o[17] O
wbs_dat_o[18] O
wbs_dat_o[19] O
wbs_dat_o[1] O
wbs_dat_o[20] O
wbs_dat_o[21] O
wbs_dat_o[22] O
wbs_dat_o[23] O
wbs_dat_o[24] O
wbs_dat_o[25] O
wbs_dat_o[26] O
wbs_dat_o[27] O
wbs_dat_o[28] O
wbs_dat_o[29] O
wbs_dat_o[2] O
wbs_dat_o[30] O
wbs_dat_o[31] O
wbs_dat_o[3] O
wbs_dat_o[4] O
wbs_dat_o[5] O
wbs_dat_o[6] O
wbs_dat_o[7] O
wbs_dat_o[8] O
wbs_dat_o[9] O
wbs_sel_i[0] I
wbs_sel_i[1] I
wbs_sel_i[2] I
wbs_sel_i[3] I
wbs_stb_i I
wbs_we_i I

*D_NET *1 0.5036
*CONN
*P io_in[0] I
*I *420:io_in[0] I *D wrapped_as2650
*CAP
1 io_in[0] 0.0668521
2 *420:io_in[0] 0.000375935
3 *1:13 0.00468217
4 *1:11 0.00430623
5 *1:9 0.0661118
6 *1:7 0.0661118
7 *1:5 0.0668521
8 *1:5 la_data_out[14] 0
9 *1:13 *12:13 0.0236887
10 *1:13 *23:13 0.00598265
11 *1:13 *25:13 0.0922053
12 *1:13 *28:13 0.101123
13 *1:13 *32:13 0.0053083
*RES
1 io_in[0] *1:5 577.46 
2 *1:5 *1:7 4.5 
3 *1:7 *1:9 545.896 
4 *1:9 *1:11 4.5 
5 *1:11 *1:13 370.76 
6 *1:13 *420:io_in[0] 6.632 
*END

*D_NET *2 0.247444
*CONN
*P io_in[10] I
*I *420:io_in[10] I *D wrapped_as2650
*CAP
1 io_in[10] 0.100061
2 *420:io_in[10] 0.0236613
3 *2:7 0.0236613
4 *2:5 0.100061
*RES
1 io_in[10] *2:5 873.236 
2 *2:5 *2:7 4.5 
3 *2:7 *420:io_in[10] 192.66 
*END

*D_NET *3 0.263061
*CONN
*P io_in[11] I
*I *420:io_in[11] I *D wrapped_as2650
*CAP
1 io_in[11] 0.00208419
2 *420:io_in[11] 0.00355681
3 *3:13 0.100656
4 *3:11 0.0970993
5 *3:9 0.0287904
6 *3:7 0.0308746
7 *3:9 *38:11 0
*RES
1 io_in[11] *3:7 20.36 
2 *3:7 *3:9 241.384 
3 *3:9 *3:11 4.5 
4 *3:11 *3:13 849.992 
5 *3:13 *420:io_in[11] 29.512 
*END

*D_NET *4 0.278754
*CONN
*P io_in[12] I
*I *420:io_in[12] I *D wrapped_as2650
*CAP
1 io_in[12] 0.0980973
2 *420:io_in[12] 0.0412798
3 *4:7 0.0412798
4 *4:5 0.0980973
*RES
1 io_in[12] *4:5 858.26 
2 *4:5 *4:7 4.5 
3 *4:7 *420:io_in[12] 339.924 
*END

*D_NET *5 0.294341
*CONN
*P io_in[13] I
*I *420:io_in[13] I *D wrapped_as2650
*CAP
1 io_in[13] 0.0971971
2 *420:io_in[13] 0.0499735
3 *5:7 0.0499735
4 *5:5 0.0971971
5 *420:io_in[13] *90:17 0
*RES
1 io_in[13] *5:5 850.772 
2 *5:5 *5:7 4.5 
3 *5:7 *420:io_in[13] 413.556 
*END

*D_NET *6 0.310874
*CONN
*P io_in[14] I
*I *420:io_in[14] I *D wrapped_as2650
*CAP
1 io_in[14] 0.00246135
2 *420:io_in[14] 0.0326692
3 *6:15 0.0326692
4 *6:13 0.0942905
5 *6:11 0.0942905
6 *6:9 0.0260159
7 *6:7 0.0284772
*RES
1 io_in[14] *6:7 20.36 
2 *6:7 *6:9 218.92 
3 *6:9 *6:11 4.5 
4 *6:11 *6:13 827.528 
5 *6:13 *6:15 4.5 
6 *6:15 *420:io_in[14] 268.372 
*END

*D_NET *7 0.632696
*CONN
*P io_in[15] I
*I *420:io_in[15] I *D wrapped_as2650
*CAP
1 io_in[15] 0.0638901
2 *420:io_in[15] 0.0019386
3 *7:9 0.0337797
4 *7:7 0.0318411
5 *7:5 0.0638901
6 *7:9 *45:13 0.292099
7 *7:9 *48:13 0.145258
*RES
1 io_in[15] *7:5 536.692 
2 *7:5 *7:7 4.5 
3 *7:7 *7:9 815.464 
4 *7:9 *420:io_in[15] 17.24 
*END

*D_NET *8 0.288393
*CONN
*P io_in[16] I
*I *420:io_in[16] I *D wrapped_as2650
*CAP
1 io_in[16] 0.0608883
2 *420:io_in[16] 0.00506276
3 *8:9 0.0833084
4 *8:7 0.0782457
5 *8:5 0.0608883
*RES
1 io_in[16] *8:5 511.94 
2 *8:5 *8:7 4.5 
3 *8:7 *8:9 685.048 
4 *8:9 *420:io_in[16] 41.992 
*END

*D_NET *9 0.258789
*CONN
*P io_in[17] I
*I *420:io_in[17] I *D wrapped_as2650
*CAP
1 io_in[17] 0.0560439
2 *420:io_in[17] 0.0099683
3 *9:11 0.0099683
4 *9:9 0.0633822
5 *9:7 0.0633822
6 *9:5 0.0560439
*RES
1 io_in[17] *9:5 471.38 
2 *9:5 *9:7 4.5 
3 *9:7 *9:9 554.632 
4 *9:9 *9:11 4.5 
5 *9:11 *420:io_in[17] 78.052 
*END

*D_NET *10 0.413434
*CONN
*P io_in[18] I
*I *420:io_in[18] I *D wrapped_as2650
*CAP
1 io_in[18] 0.0635876
2 *420:io_in[18] 0.00236342
3 *10:9 0.0150907
4 *10:7 0.0127273
5 *10:5 0.0635876
6 *10:9 *44:10 0.168813
7 *10:9 *49:13 0.0872645
*RES
1 io_in[18] *10:5 533.572 
2 *10:5 *10:7 4.5 
3 *10:7 *10:9 424.216 
4 *10:9 *420:io_in[18] 20.36 
*END

*D_NET *11 0.230752
*CONN
*P io_in[19] I
*I *420:io_in[19] I *D wrapped_as2650
*CAP
1 io_in[19] 0.0643887
2 *420:io_in[19] 0.00160306
3 *11:9 0.0198439
4 *11:7 0.0182408
5 *11:5 0.0643887
6 *11:9 *19:13 0.0208876
7 *11:9 *46:13 0.0413987
*RES
1 io_in[19] *11:5 539.396 
2 *11:5 *11:7 4.5 
3 *11:7 *11:9 293.8 
4 *11:9 *420:io_in[19] 14.536 
*END

*D_NET *12 0.404067
*CONN
*P io_in[1] I
*I *420:io_in[1] I *D wrapped_as2650
*CAP
1 io_in[1] 0.00201966
2 *420:io_in[1] 0.000307055
3 *12:13 0.0795915
4 *12:11 0.0792845
5 *12:9 0.0561225
6 *12:7 0.0581422
7 *12:13 *25:13 0.0891985
8 *12:13 *32:13 0
9 *12:13 *84:13 0
10 *12:13 *85:13 0
11 *12:13 *86:13 0.00570946
12 *12:13 *87:13 0.00868049
13 *12:13 *90:13 0.00132304
14 *1:13 *12:13 0.0236887
*RES
1 io_in[1] *12:7 20.36 
2 *12:7 *12:9 471.432 
3 *12:9 *12:11 4.5 
4 *12:11 *12:13 924.872 
5 *12:13 *420:io_in[1] 6.216 
*END

*D_NET *13 0.169468
*CONN
*P io_in[20] I
*I *420:io_in[20] I *D wrapped_as2650
*CAP
1 io_in[20] 0.00152059
2 *420:io_in[20] 0.0646915
3 *13:11 0.0646915
4 *13:9 0.0185217
5 *13:7 0.0200423
*RES
1 io_in[20] *13:7 17.24 
2 *13:7 *13:9 163.384 
3 *13:9 *13:11 4.5 
4 *13:11 *420:io_in[20] 536.692 
*END

*D_NET *14 0.139745
*CONN
*P io_in[21] I
*I *420:io_in[21] I *D wrapped_as2650
*CAP
1 io_in[21] 0.0603201
2 *420:io_in[21] 0.00587163
3 *14:11 0.00955231
4 *14:5 0.0640008
5 *14:11 *37:5 0
*RES
1 io_in[21] *14:5 505.7 
2 *14:5 *14:11 41.968 
3 *14:11 *420:io_in[21] 43.732 
*END

*D_NET *15 0.155067
*CONN
*P io_in[22] I
*I *420:io_in[22] I *D wrapped_as2650
*CAP
1 io_in[22] 0.0508276
2 *420:io_in[22] 0.0152623
3 *15:11 0.0152623
4 *15:9 0.0114437
5 *15:7 0.0114437
6 *15:5 0.0508276
*RES
1 io_in[22] *15:5 427.7 
2 *15:5 *15:7 4.5 
3 *15:7 *15:9 97.656 
4 *15:9 *15:11 4.5 
5 *15:11 *420:io_in[22] 121.732 
*END

*D_NET *16 0.239232
*CONN
*P io_in[23] I
*I *420:io_in[23] I *D wrapped_as2650
*CAP
1 io_in[23] 0.0610608
2 *420:io_in[23] 0.00474377
3 *16:9 0.0206759
4 *16:7 0.0159322
5 *16:5 0.0610608
6 *16:9 *81:13 0.0757586
*RES
1 io_in[23] *16:5 514.852 
2 *16:5 *16:7 4.5 
3 *16:7 *16:9 228.072 
4 *16:9 *420:io_in[23] 39.08 
*END

*D_NET *17 0.205784
*CONN
*P io_in[24] I
*I *420:io_in[24] I *D wrapped_as2650
*CAP
1 io_in[24] 0.038605
2 *420:io_in[24] 0.0642871
3 *17:7 0.0642871
4 *17:5 0.038605
*RES
1 io_in[24] *17:5 337.22 
2 *17:5 *17:7 4.5 
3 *17:7 *420:io_in[24] 533.572 
*END

*D_NET *18 0.18985
*CONN
*P io_in[25] I
*I *420:io_in[25] I *D wrapped_as2650
*CAP
1 io_in[25] 0.00159781
2 *420:io_in[25] 0.00962505
3 *18:15 0.00962505
4 *18:13 0.0384808
5 *18:11 0.0384808
6 *18:9 0.0452213
7 *18:7 0.0468191
8 *18:9 *21:11 0
*RES
1 io_in[25] *18:7 17.864 
2 *18:7 *18:9 380.12 
3 *18:9 *18:11 4.5 
4 *18:11 *18:13 331.448 
5 *18:13 *18:15 4.5 
6 *18:15 *420:io_in[25] 74.932 
*END

*D_NET *19 0.281285
*CONN
*P io_in[26] I
*I *420:io_in[26] I *D wrapped_as2650
*CAP
1 io_in[26] 0.00454753
2 *420:io_in[26] 0.0017572
3 *19:13 0.0171258
4 *19:11 0.0153686
5 *19:9 0.0435734
6 *19:7 0.0481209
7 *19:13 *46:13 0.0820867
8 *19:13 *52:13 0.0478168
9 *11:9 *19:13 0.0208876
*RES
1 io_in[26] *19:7 42.824 
2 *19:7 *19:9 366.6 
3 *19:9 *19:11 4.5 
4 *19:11 *19:13 313.976 
5 *19:13 *420:io_in[26] 14.328 
*END

*D_NET *20 0.197038
*CONN
*P io_in[27] I
*I *420:io_in[27] I *D wrapped_as2650
*CAP
1 io_in[27] 0.0526541
2 *420:io_in[27] 0.0458652
3 *20:7 0.0458652
4 *20:5 0.0526541
*RES
1 io_in[27] *20:5 359.684 
2 *20:5 *20:7 4.5 
3 *20:7 *420:io_in[27] 297.7 
*END

*D_NET *21 0.202854
*CONN
*P io_in[28] I
*I *420:io_in[28] I *D wrapped_as2650
*CAP
1 io_in[28] 0.00226917
2 *420:io_in[28] 0.0263591
3 *21:15 0.0263591
4 *21:13 0.028779
5 *21:11 0.0310481
6 *21:13 *78:13 0.0880399
7 *18:9 *21:11 0
*RES
1 io_in[28] *21:11 24.548 
2 *21:11 *21:13 355.368 
3 *21:13 *21:15 4.5 
4 *21:15 *420:io_in[28] 215.54 
*END

*D_NET *22 0.121909
*CONN
*P io_in[29] I
*I *420:io_in[29] I *D wrapped_as2650
*CAP
1 io_in[29] 0.0435611
2 *420:io_in[29] 0.0173937
3 *22:7 0.0173937
4 *22:5 0.0435611
*RES
1 io_in[29] *22:5 374.66 
2 *22:5 *22:7 4.5 
3 *22:7 *420:io_in[29] 140.452 
*END

*D_NET *23 0.453239
*CONN
*P io_in[2] I
*I *420:io_in[2] I *D wrapped_as2650
*CAP
1 io_in[2] 0.0763588
2 *420:io_in[2] 0.000485601
3 *23:13 0.00230283
4 *23:11 0.00181723
5 *23:9 0.0488973
6 *23:7 0.0488973
7 *23:5 0.0763588
8 *23:9 *179:11 0
9 *23:9 *212:13 0
10 *23:9 *223:15 0
11 *23:9 *239:15 0
12 *23:9 *310:11 0
13 *23:13 *27:13 0.0922053
14 *23:13 *28:13 0.0951212
15 *23:13 *32:13 0.00481217
16 *1:13 *23:13 0.00598265
*RES
1 io_in[2] *23:5 658.58 
2 *23:5 *23:7 4.5 
3 *23:7 *23:9 399.048 
4 *23:9 *23:11 4.5 
5 *23:11 *23:13 274.664 
6 *23:13 *420:io_in[2] 7.048 
*END

*D_NET *24 0.105022
*CONN
*P io_in[30] I
*I *420:io_in[30] I *D wrapped_as2650
*CAP
1 io_in[30] 0.0445259
2 *420:io_in[30] 0.00798519
3 *24:7 0.00798519
4 *24:5 0.0445259
*RES
1 io_in[30] *24:5 382.148 
2 *24:5 *24:7 4.5 
3 *24:7 *420:io_in[30] 61.828 
*END

*D_NET *25 0.229565
*CONN
*P io_in[31] I
*I *420:io_in[31] I *D wrapped_as2650
*CAP
1 io_in[31] 0.00373596
2 *420:io_in[31] 0.000310906
3 *25:13 0.0165664
4 *25:11 0.0199914
5 *25:13 *28:13 0.00615667
6 *25:13 *84:13 0
7 *25:13 *86:13 0.00139786
8 *25:13 *90:13 1.78209e-06
9 *1:13 *25:13 0.0922053
10 *12:13 *25:13 0.0891985
*RES
1 io_in[31] *25:11 39.316 
2 *25:11 *25:13 377.832 
3 *25:13 *420:io_in[31] 6.424 
*END

*D_NET *26 0.242424
*CONN
*P io_in[32] I
*I *420:io_in[32] I *D wrapped_as2650
*CAP
1 io_in[32] 0.0163458
2 *420:io_in[32] 0.000513678
3 *26:13 0.0063244
4 *26:11 0.00581072
5 *26:9 0.0109652
6 *26:7 0.0109652
7 *26:5 0.0163458
8 *26:9 *47:9 0
9 *26:9 *84:9 0.00237794
10 *26:13 *27:13 0.102707
11 *26:13 *30:13 0
12 *26:13 *32:13 0.0700682
13 *26:13 *33:17 0
*RES
1 io_in[32] *26:5 138.164 
2 *26:5 *26:7 4.5 
3 *26:7 *26:9 98.488 
4 *26:9 *26:11 4.5 
5 *26:11 *26:13 259.064 
6 *26:13 *420:io_in[32] 7.464 
*END

*D_NET *27 0.281595
*CONN
*P io_in[33] I
*I *420:io_in[33] I *D wrapped_as2650
*CAP
1 io_in[33] 0.0158558
2 *420:io_in[33] 0.000469041
3 *27:13 0.00204882
4 *27:11 0.00157978
5 *27:9 0.0216612
6 *27:7 0.0216612
7 *27:5 0.0158558
8 *27:13 *28:13 0.00625025
9 *27:13 *32:13 0.00130081
10 *23:13 *27:13 0.0922053
11 *26:13 *27:13 0.102707
*RES
1 io_in[33] *27:5 135.044 
2 *27:5 *27:7 4.5 
3 *27:7 *27:9 176.904 
4 *27:9 *27:11 4.5 
5 *27:11 *27:13 269.672 
6 *27:13 *420:io_in[33] 7.256 
*END

*D_NET *28 0.305191
*CONN
*P io_in[34] I
*I *420:io_in[34] I *D wrapped_as2650
*CAP
1 io_in[34] 0.0139676
2 *420:io_in[34] 0.000379769
3 *28:13 0.00326299
4 *28:11 0.00288323
5 *28:9 0.0310392
6 *28:7 0.0310392
7 *28:5 0.0139676
8 *1:13 *28:13 0.101123
9 *23:13 *28:13 0.0951212
10 *25:13 *28:13 0.00615667
11 *27:13 *28:13 0.00625025
*RES
1 io_in[34] *28:5 119.444 
2 *28:5 *28:7 4.5 
3 *28:7 *28:9 255.112 
4 *28:9 *28:11 4.5 
5 *28:11 *28:13 292.76 
6 *28:13 *420:io_in[34] 6.84 
*END

*D_NET *29 0.354244
*CONN
*P io_in[35] I
*I *420:io_in[35] I *D wrapped_as2650
*CAP
1 io_in[35] 0.012929
2 *420:io_in[35] 0.000845336
3 *29:13 0.00672592
4 *29:11 0.00588059
5 *29:9 0.0321371
6 *29:7 0.0321371
7 *29:5 0.012929
8 *29:9 *53:9 0.0198161
9 *29:9 *91:9 0.0179046
10 *29:13 *31:13 0.122595
11 *29:13 *32:23 0.00112662
12 *29:13 *34:13 0.0892181
*RES
1 io_in[35] *29:5 110.084 
2 *29:5 *29:7 4.5 
3 *29:7 *29:9 336.856 
4 *29:9 *29:11 4.5 
5 *29:11 *29:13 309.608 
6 *29:13 *420:io_in[35] 9.96 
*END

*D_NET *30 0.359734
*CONN
*P io_in[36] I
*I *420:io_in[36] I *D wrapped_as2650
*CAP
1 io_in[36] 0.00280887
2 *420:io_in[36] 0.000756063
3 *30:13 0.0165427
4 *30:11 0.0157866
5 *30:9 0.049533
6 *30:7 0.0523419
7 *30:13 *31:13 0.126831
8 *30:13 *33:17 0.0951342
9 *26:13 *30:13 0
*RES
1 io_in[36] *30:7 27.224 
2 *30:7 *30:9 415.064 
3 *30:9 *30:11 4.5 
4 *30:11 *30:13 404.456 
5 *30:13 *420:io_in[36] 9.544 
*END

*D_NET *31 0.402089
*CONN
*P io_in[37] I
*I *420:io_in[37] I *D wrapped_as2650
*CAP
1 io_in[37] 0.0125256
2 *420:io_in[37] 0.000780289
3 *31:13 0.00250592
4 *31:11 0.00172563
5 *31:9 0.0593428
6 *31:7 0.0593428
7 *31:5 0.0125256
8 *31:5 *392:17 0
9 *31:13 *33:17 0.00130081
10 *31:13 *34:13 0.00261336
11 *29:13 *31:13 0.122595
12 *30:13 *31:13 0.126831
*RES
1 io_in[37] *31:5 106.964 
2 *31:5 *31:7 4.5 
3 *31:7 *31:9 493.896 
4 *31:9 *31:11 4.5 
5 *31:11 *31:13 327.704 
6 *31:13 *420:io_in[37] 9.752 
*END

*D_NET *32 0.364069
*CONN
*P io_in[3] I
*I *420:io_in[3] I *D wrapped_as2650
*CAP
1 io_in[3] 0.00121346
2 *420:io_in[3] 0.00104431
3 *32:23 0.00404268
4 *32:19 0.00354747
5 *32:13 0.0864006
6 *32:11 0.0858515
7 *32:9 0.0388225
8 *32:7 0.0400359
9 *32:7 *61:10 1.79928e-05
10 *32:9 io_oeb[4] 0.00184435
11 *32:9 *35:11 0.000171302
12 *32:9 *73:17 0.00419008
13 *32:9 *99:14 0.00773552
14 *32:13 *33:17 0
15 *32:23 *34:13 0.000878946
16 *32:23 *35:21 0.00130081
17 *32:23 *36:13 0.00435555
18 *1:13 *32:13 0.0053083
19 *12:13 *32:13 0
20 *23:13 *32:13 0.00481217
21 *26:13 *32:13 0.0700682
22 *27:13 *32:13 0.00130081
23 *29:13 *32:23 0.00112662
*RES
1 io_in[3] *32:7 14.12 
2 *32:7 *32:9 325.624 
3 *32:9 *32:11 4.5 
4 *32:11 *32:13 875.368 
5 *32:13 *32:19 12.224 
6 *32:19 *32:23 45.372 
7 *32:23 *420:io_in[3] 6.292 
*END

*D_NET *33 0.343169
*CONN
*P io_in[4] I
*I *420:io_in[4] I *D wrapped_as2650
*CAP
1 io_in[4] 0.00312335
2 *420:io_in[4] 0.000894421
3 *33:17 0.0892493
4 *33:15 0.0883549
5 *33:13 0.0301888
6 *33:11 0.0333121
7 *33:13 user_irq[2] 0
8 *33:17 *34:13 0.00131384
9 *33:17 *35:21 0.000204966
10 *33:17 *36:13 9.19908e-05
11 *26:13 *33:17 0
12 *30:13 *33:17 0.0951342
13 *31:13 *33:17 0.00130081
14 *32:13 *33:17 0
*RES
1 io_in[4] *33:11 24.52 
2 *33:11 *33:13 252.824 
3 *33:13 *33:15 4.5 
4 *33:15 *33:17 899.288 
5 *33:17 *420:io_in[4] 9.336 
*END

*D_NET *34 0.395498
*CONN
*P io_in[5] I
*I *420:io_in[5] I *D wrapped_as2650
*CAP
1 io_in[5] 0.0736788
2 *420:io_in[5] 0.000991989
3 *34:13 0.00232092
4 *34:11 0.00132893
5 *34:9 0.0227211
6 *34:7 0.0227211
7 *34:5 0.0736788
8 *34:5 *184:5 0.00553102
9 *34:9 *310:11 0
10 *34:13 *35:21 0.0985009
11 *29:13 *34:13 0.0892181
12 *31:13 *34:13 0.00261336
13 *32:23 *34:13 0.000878946
14 *33:17 *34:13 0.00131384
*RES
1 io_in[5] *34:5 655.46 
2 *34:5 *34:7 4.5 
3 *34:7 *34:9 181.272 
4 *34:9 *34:11 4.5 
5 *34:11 *34:13 255.32 
6 *34:13 *420:io_in[5] 10.168 
*END

*D_NET *35 0.378086
*CONN
*P io_in[6] I
*I *420:io_in[6] I *D wrapped_as2650
*CAP
1 io_in[6] 0.00144596
2 *420:io_in[6] 0.00103663
3 *35:21 0.0020096
4 *35:19 0.000972979
5 *35:17 0.0133096
6 *35:15 0.0133096
7 *35:13 0.0738097
8 *35:11 0.0752557
9 *35:13 *208:5 0
10 *35:13 *209:5 0
11 *35:21 *36:13 0.0967586
12 *32:9 *35:11 0.000171302
13 *32:23 *35:21 0.00130081
14 *33:17 *35:21 0.000204966
15 *34:13 *35:21 0.0985009
*RES
1 io_in[6] *35:11 21.012 
2 *35:11 *35:13 642.2 
3 *35:13 *35:15 4.5 
4 *35:15 *35:17 105.768 
5 *35:17 *35:19 4.5 
6 *35:19 *35:21 250.952 
7 *35:21 *420:io_in[6] 10.376 
*END

*D_NET *36 0.289363
*CONN
*P io_in[7] I
*I *420:io_in[7] I *D wrapped_as2650
*CAP
1 io_in[7] 0.074037
2 *420:io_in[7] 0.00108126
3 *36:13 0.0152849
4 *36:11 0.0186456
5 *36:5 0.0784789
6 *36:5 *232:9 0.000629226
7 *32:23 *36:13 0.00435555
8 *33:17 *36:13 9.19908e-05
9 *35:21 *36:13 0.0967586
*RES
1 io_in[7] *36:5 649.22 
2 *36:5 *36:11 43.424 
3 *36:11 *36:13 246.584 
4 *36:13 *420:io_in[7] 10.584 
*END

*D_NET *37 0.215827
*CONN
*P io_in[8] I
*I *420:io_in[8] I *D wrapped_as2650
*CAP
1 io_in[8] 0.101848
2 *420:io_in[8] 0.00606558
3 *37:5 0.107914
4 *14:11 *37:5 0
*RES
1 io_in[8] *37:5 888.212 
2 *37:5 *420:io_in[8] 49.896 
*END

*D_NET *38 0.232531
*CONN
*P io_in[9] I
*I *420:io_in[9] I *D wrapped_as2650
*CAP
1 io_in[9] 0.00273726
2 *420:io_in[9] 0.0144491
3 *38:15 0.0144491
4 *38:13 0.099079
5 *38:11 0.101816
6 *3:9 *38:11 0
*RES
1 io_in[9] *38:11 27.044 
2 *38:11 *38:13 866.424 
3 *38:13 *38:15 4.5 
4 *38:15 *420:io_in[9] 115.492 
*END

*D_NET *39 0.426601
*CONN
*P io_oeb[0] O
*I *420:io_oeb[0] O *D wrapped_as2650
*CAP
1 io_oeb[0] 0.11241
2 *420:io_oeb[0] 0.000337973
3 *39:11 0.11241
4 *39:9 0.022347
5 *39:7 0.022685
6 io_oeb[0] *229:13 0
7 io_oeb[0] *382:17 0
8 io_oeb[0] *389:9 0
9 io_oeb[0] *407:9 0
10 *39:9 *50:9 0.124025
11 *39:9 *78:9 0.0323867
*RES
1 *420:io_oeb[0] *39:7 7.048 
2 *39:7 *39:9 384.696 
3 *39:9 *39:11 4.5 
4 *39:11 io_oeb[0] 959.972 
*END

*D_NET *40 0.413285
*CONN
*P io_oeb[10] O
*I *420:io_oeb[10] O *D wrapped_as2650
*CAP
1 io_oeb[10] 0.109473
2 *420:io_oeb[10] 0
3 *40:8 0.109473
4 *40:6 0.0144155
5 *40:4 0.0144155
6 *40:6 *41:6 0.127462
7 *40:6 *42:6 0.00168028
8 *40:6 *44:6 0.000696914
9 *40:6 *45:7 0.000207446
10 *40:6 *45:9 0.00299707
11 *40:6 *51:9 0.000266807
12 *40:6 *85:9 0.000201913
13 *40:6 *112:6 0.0319946
*RES
1 *420:io_oeb[10] *40:4 4.5 
2 *40:4 *40:6 322.712 
3 *40:6 *40:8 4.5 
4 *40:8 io_oeb[10] 957.268 
*END

*D_NET *41 0.407279
*CONN
*P io_oeb[11] O
*I *420:io_oeb[11] O *D wrapped_as2650
*CAP
1 io_oeb[11] 0.109462