*SPEF "ieee 1481-1999"
*DESIGN "user_project_wrapper"
*DATE "11:11:11 Fri 11 11, 1111"
*VENDOR "OpenRCX"
*PROGRAM "Parallel Extraction"
*VERSION "1.0"
*DESIGN_FLOW "NAME_SCOPE LOCAL" "PIN_CAP NONE"
*DIVIDER /
*DELIMITER :
*BUS_DELIMITER []
*T_UNIT 1 NS
*C_UNIT 1 PF
*R_UNIT 1 OHM
*L_UNIT 1 HENRY

*NAME_MAP
*1 io_in[0]
*2 io_in[10]
*3 io_in[11]
*4 io_in[12]
*5 io_in[13]
*6 io_in[14]
*7 io_in[15]
*8 io_in[16]
*9 io_in[17]
*10 io_in[18]
*11 io_in[19]
*12 io_in[1]
*13 io_in[20]
*14 io_in[21]
*15 io_in[22]
*16 io_in[23]
*17 io_in[24]
*18 io_in[25]
*19 io_in[26]
*20 io_in[27]
*21 io_in[28]
*22 io_in[29]
*23 io_in[2]
*24 io_in[30]
*25 io_in[31]
*26 io_in[32]
*27 io_in[33]
*28 io_in[34]
*29 io_in[35]
*30 io_in[36]
*31 io_in[37]
*32 io_in[3]
*33 io_in[4]
*34 io_in[5]
*35 io_in[6]
*36 io_in[7]
*37 io_in[8]
*38 io_in[9]
*39 io_oeb[0]
*40 io_oeb[10]
*41 io_oeb[11]
*42 io_oeb[12]
*43 io_oeb[13]
*44 io_oeb[14]
*45 io_oeb[15]
*46 io_oeb[16]
*47 io_oeb[17]
*48 io_oeb[18]
*49 io_oeb[19]
*50 io_oeb[1]
*51 io_oeb[20]
*52 io_oeb[21]
*53 io_oeb[22]
*54 io_oeb[23]
*55 io_oeb[24]
*56 io_oeb[25]
*57 io_oeb[26]
*58 io_oeb[27]
*59 io_oeb[28]
*60 io_oeb[29]
*61 io_oeb[2]
*62 io_oeb[30]
*63 io_oeb[31]
*64 io_oeb[32]
*65 io_oeb[33]
*66 io_oeb[34]
*67 io_oeb[35]
*68 io_oeb[36]
*69 io_oeb[37]
*70 io_oeb[3]
*71 io_oeb[4]
*72 io_oeb[5]
*73 io_oeb[6]
*74 io_oeb[7]
*75 io_oeb[8]
*76 io_oeb[9]
*77 io_out[0]
*78 io_out[10]
*79 io_out[11]
*80 io_out[12]
*81 io_out[13]
*82 io_out[14]
*83 io_out[15]
*84 io_out[16]
*85 io_out[17]
*86 io_out[18]
*87 io_out[19]
*88 io_out[1]
*89 io_out[20]
*90 io_out[21]
*91 io_out[22]
*92 io_out[23]
*93 io_out[24]
*94 io_out[25]
*95 io_out[26]
*96 io_out[27]
*97 io_out[28]
*98 io_out[29]
*99 io_out[2]
*100 io_out[30]
*101 io_out[31]
*102 io_out[32]
*103 io_out[33]
*104 io_out[34]
*105 io_out[35]
*106 io_out[36]
*107 io_out[37]
*108 io_out[3]
*109 io_out[4]
*110 io_out[5]
*111 io_out[6]
*112 io_out[7]
*113 io_out[8]
*114 io_out[9]
*115 la_data_in[0]
*116 la_data_in[10]
*117 la_data_in[11]
*118 la_data_in[12]
*119 la_data_in[13]
*120 la_data_in[14]
*121 la_data_in[15]
*122 la_data_in[16]
*123 la_data_in[17]
*124 la_data_in[18]
*125 la_data_in[19]
*126 la_data_in[1]
*127 la_data_in[20]
*128 la_data_in[21]
*129 la_data_in[22]
*130 la_data_in[23]
*131 la_data_in[24]
*132 la_data_in[25]
*133 la_data_in[26]
*134 la_data_in[27]
*135 la_data_in[28]
*136 la_data_in[29]
*137 la_data_in[2]
*138 la_data_in[30]
*139 la_data_in[31]
*140 la_data_in[32]
*141 la_data_in[33]
*142 la_data_in[34]
*143 la_data_in[35]
*144 la_data_in[36]
*145 la_data_in[37]
*146 la_data_in[38]
*147 la_data_in[39]
*148 la_data_in[3]
*149 la_data_in[40]
*150 la_data_in[41]
*151 la_data_in[42]
*152 la_data_in[43]
*153 la_data_in[44]
*154 la_data_in[45]
*155 la_data_in[46]
*156 la_data_in[47]
*157 la_data_in[48]
*158 la_data_in[49]
*159 la_data_in[4]
*160 la_data_in[50]
*161 la_data_in[51]
*162 la_data_in[52]
*163 la_data_in[53]
*164 la_data_in[54]
*165 la_data_in[55]
*166 la_data_in[56]
*167 la_data_in[57]
*168 la_data_in[58]
*169 la_data_in[59]
*170 la_data_in[5]
*171 la_data_in[60]
*172 la_data_in[61]
*173 la_data_in[62]
*174 la_data_in[63]
*175 la_data_in[6]
*176 la_data_in[7]
*177 la_data_in[8]
*178 la_data_in[9]
*179 la_data_out[0]
*180 la_data_out[10]
*181 la_data_out[11]
*182 la_data_out[12]
*183 la_data_out[13]
*184 la_data_out[14]
*185 la_data_out[15]
*186 la_data_out[16]
*187 la_data_out[17]
*188 la_data_out[18]
*189 la_data_out[19]
*190 la_data_out[1]
*191 la_data_out[20]
*192 la_data_out[21]
*193 la_data_out[22]
*194 la_data_out[23]
*195 la_data_out[24]
*196 la_data_out[25]
*197 la_data_out[26]
*198 la_data_out[27]
*199 la_data_out[28]
*200 la_data_out[29]
*201 la_data_out[2]
*202 la_data_out[30]
*203 la_data_out[31]
*204 la_data_out[32]
*205 la_data_out[33]
*206 la_data_out[34]
*207 la_data_out[35]
*208 la_data_out[36]
*209 la_data_out[37]
*210 la_data_out[38]
*211 la_data_out[39]
*212 la_data_out[3]
*213 la_data_out[40]
*214 la_data_out[41]
*215 la_data_out[42]
*216 la_data_out[43]
*217 la_data_out[44]
*218 la_data_out[45]
*219 la_data_out[46]
*220 la_data_out[47]
*221 la_data_out[48]
*222 la_data_out[49]
*223 la_data_out[4]
*224 la_data_out[50]
*225 la_data_out[51]
*226 la_data_out[52]
*227 la_data_out[53]
*228 la_data_out[54]
*229 la_data_out[55]
*230 la_data_out[56]
*231 la_data_out[57]
*232 la_data_out[58]
*233 la_data_out[59]
*234 la_data_out[5]
*235 la_data_out[60]
*236 la_data_out[61]
*237 la_data_out[62]
*238 la_data_out[63]
*239 la_data_out[6]
*240 la_data_out[7]
*241 la_data_out[8]
*242 la_data_out[9]
*243 la_oenb[0]
*244 la_oenb[10]
*245 la_oenb[11]
*246 la_oenb[12]
*247 la_oenb[13]
*248 la_oenb[14]
*249 la_oenb[15]
*250 la_oenb[16]
*251 la_oenb[17]
*252 la_oenb[18]
*253 la_oenb[19]
*254 la_oenb[1]
*255 la_oenb[20]
*256 la_oenb[21]
*257 la_oenb[22]
*258 la_oenb[23]
*259 la_oenb[24]
*260 la_oenb[25]
*261 la_oenb[26]
*262 la_oenb[27]
*263 la_oenb[28]
*264 la_oenb[29]
*265 la_oenb[2]
*266 la_oenb[30]
*267 la_oenb[31]
*268 la_oenb[32]
*269 la_oenb[33]
*270 la_oenb[34]
*271 la_oenb[35]
*272 la_oenb[36]
*273 la_oenb[37]
*274 la_oenb[38]
*275 la_oenb[39]
*276 la_oenb[3]
*277 la_oenb[40]
*278 la_oenb[41]
*279 la_oenb[42]
*280 la_oenb[43]
*281 la_oenb[44]
*282 la_oenb[45]
*283 la_oenb[46]
*284 la_oenb[47]
*285 la_oenb[48]
*286 la_oenb[49]
*287 la_oenb[4]
*288 la_oenb[50]
*289 la_oenb[51]
*290 la_oenb[52]
*291 la_oenb[53]
*292 la_oenb[54]
*293 la_oenb[55]
*294 la_oenb[56]
*295 la_oenb[57]
*296 la_oenb[58]
*297 la_oenb[59]
*298 la_oenb[5]
*299 la_oenb[60]
*300 la_oenb[61]
*301 la_oenb[62]
*302 la_oenb[63]
*303 la_oenb[6]
*304 la_oenb[7]
*305 la_oenb[8]
*306 la_oenb[9]
*307 user_clock2
*308 user_irq[0]
*309 user_irq[1]
*310 user_irq[2]
*313 wb_clk_i
*314 wb_rst_i
*315 wbs_ack_o
*316 wbs_adr_i[0]
*317 wbs_adr_i[10]
*318 wbs_adr_i[11]
*319 wbs_adr_i[12]
*320 wbs_adr_i[13]
*321 wbs_adr_i[14]
*322 wbs_adr_i[15]
*323 wbs_adr_i[16]
*324 wbs_adr_i[17]
*325 wbs_adr_i[18]
*326 wbs_adr_i[19]
*327 wbs_adr_i[1]
*328 wbs_adr_i[20]
*329 wbs_adr_i[21]
*330 wbs_adr_i[22]
*331 wbs_adr_i[23]
*332 wbs_adr_i[24]
*333 wbs_adr_i[25]
*334 wbs_adr_i[26]
*335 wbs_adr_i[27]
*336 wbs_adr_i[28]
*337 wbs_adr_i[29]
*338 wbs_adr_i[2]
*339 wbs_adr_i[30]
*340 wbs_adr_i[31]
*341 wbs_adr_i[3]
*342 wbs_adr_i[4]
*343 wbs_adr_i[5]
*344 wbs_adr_i[6]
*345 wbs_adr_i[7]
*346 wbs_adr_i[8]
*347 wbs_adr_i[9]
*348 wbs_cyc_i
*349 wbs_dat_i[0]
*350 wbs_dat_i[10]
*351 wbs_dat_i[11]
*352 wbs_dat_i[12]
*353 wbs_dat_i[13]
*354 wbs_dat_i[14]
*355 wbs_dat_i[15]
*356 wbs_dat_i[16]
*357 wbs_dat_i[17]
*358 wbs_dat_i[18]
*359 wbs_dat_i[19]
*360 wbs_dat_i[1]
*361 wbs_dat_i[20]
*362 wbs_dat_i[21]
*363 wbs_dat_i[22]
*364 wbs_dat_i[23]
*365 wbs_dat_i[24]
*366 wbs_dat_i[25]
*367 wbs_dat_i[26]
*368 wbs_dat_i[27]
*369 wbs_dat_i[28]
*370 wbs_dat_i[29]
*371 wbs_dat_i[2]
*372 wbs_dat_i[30]
*373 wbs_dat_i[31]
*374 wbs_dat_i[3]
*375 wbs_dat_i[4]
*376 wbs_dat_i[5]
*377 wbs_dat_i[6]
*378 wbs_dat_i[7]
*379 wbs_dat_i[8]
*380 wbs_dat_i[9]
*381 wbs_dat_o[0]
*382 wbs_dat_o[10]
*383 wbs_dat_o[11]
*384 wbs_dat_o[12]
*385 wbs_dat_o[13]
*386 wbs_dat_o[14]
*387 wbs_dat_o[15]
*388 wbs_dat_o[16]
*389 wbs_dat_o[17]
*390 wbs_dat_o[18]
*391 wbs_dat_o[19]
*392 wbs_dat_o[1]
*393 wbs_dat_o[20]
*394 wbs_dat_o[21]
*395 wbs_dat_o[22]
*396 wbs_dat_o[23]
*397 wbs_dat_o[24]
*398 wbs_dat_o[25]
*399 wbs_dat_o[26]
*400 wbs_dat_o[27]
*401 wbs_dat_o[28]
*402 wbs_dat_o[29]
*403 wbs_dat_o[2]
*404 wbs_dat_o[30]
*405 wbs_dat_o[31]
*406 wbs_dat_o[3]
*407 wbs_dat_o[4]
*408 wbs_dat_o[5]
*409 wbs_dat_o[6]
*410 wbs_dat_o[7]
*411 wbs_dat_o[8]
*412 wbs_dat_o[9]
*413 wbs_sel_i[0]
*414 wbs_sel_i[1]
*415 wbs_sel_i[2]
*416 wbs_sel_i[3]
*417 wbs_stb_i
*418 wbs_we_i
*419 A_all\[0\]
*420 A_all\[1\]
*421 A_all\[2\]
*422 A_all\[3\]
*423 A_all\[4\]
*424 A_all\[5\]
*425 A_all\[6\]
*426 A_all\[7\]
*427 A_all\[8\]
*428 CEN_all
*429 DAC_clk
*430 DAC_d1
*431 DAC_d2
*432 DAC_le
*433 D_all\[0\]
*434 D_all\[1\]
*435 D_all\[2\]
*436 D_all\[3\]
*437 D_all\[4\]
*438 D_all\[5\]
*439 D_all\[6\]
*440 D_all\[7\]
*441 GWEN_0
*442 GWEN_1
*443 GWEN_2
*444 GWEN_3
*445 GWEN_4
*446 GWEN_5
*447 GWEN_6
*448 GWEN_7
*449 Q0\[0\]
*450 Q0\[1\]
*451 Q0\[2\]
*452 Q0\[3\]
*453 Q0\[4\]
*454 Q0\[5\]
*455 Q0\[6\]
*456 Q0\[7\]
*457 Q1\[0\]
*458 Q1\[1\]
*459 Q1\[2\]
*460 Q1\[3\]
*461 Q1\[4\]
*462 Q1\[5\]
*463 Q1\[6\]
*464 Q1\[7\]
*465 Q2\[0\]
*466 Q2\[1\]
*467 Q2\[2\]
*468 Q2\[3\]
*469 Q2\[4\]
*470 Q2\[5\]
*471 Q2\[6\]
*472 Q2\[7\]
*473 Q3\[0\]
*474 Q3\[1\]
*475 Q3\[2\]
*476 Q3\[3\]
*477 Q3\[4\]
*478 Q3\[5\]
*479 Q3\[6\]
*480 Q3\[7\]
*481 Q4\[0\]
*482 Q4\[1\]
*483 Q4\[2\]
*484 Q4\[3\]
*485 Q4\[4\]
*486 Q4\[5\]
*487 Q4\[6\]
*488 Q4\[7\]
*489 Q5\[0\]
*490 Q5\[1\]
*491 Q5\[2\]
*492 Q5\[3\]
*493 Q5\[4\]
*494 Q5\[5\]
*495 Q5\[6\]
*496 Q5\[7\]
*497 Q6\[0\]
*498 Q6\[1\]
*499 Q6\[2\]
*500 Q6\[3\]
*501 Q6\[4\]
*502 Q6\[5\]
*503 Q6\[6\]
*504 Q6\[7\]
*505 Q7\[0\]
*506 Q7\[1\]
*507 Q7\[2\]
*508 Q7\[3\]
*509 Q7\[4\]
*510 Q7\[5\]
*511 Q7\[6\]
*512 Q7\[7\]
*513 RAM_end_addr\[0\]
*514 RAM_end_addr\[10\]
*515 RAM_end_addr\[11\]
*516 RAM_end_addr\[12\]
*517 RAM_end_addr\[13\]
*518 RAM_end_addr\[14\]
*519 RAM_end_addr\[15\]
*520 RAM_end_addr\[1\]
*521 RAM_end_addr\[2\]
*522 RAM_end_addr\[3\]
*523 RAM_end_addr\[4\]
*524 RAM_end_addr\[5\]
*525 RAM_end_addr\[6\]
*526 RAM_end_addr\[7\]
*527 RAM_end_addr\[8\]
*528 RAM_end_addr\[9\]
*529 RAM_start_addr\[0\]
*530 RAM_start_addr\[10\]
*531 RAM_start_addr\[11\]
*532 RAM_start_addr\[12\]
*533 RAM_start_addr\[13\]
*534 RAM_start_addr\[14\]
*535 RAM_start_addr\[15\]
*536 RAM_start_addr\[1\]
*537 RAM_start_addr\[2\]
*538 RAM_start_addr\[3\]
*539 RAM_start_addr\[4\]
*540 RAM_start_addr\[5\]
*541 RAM_start_addr\[6\]
*542 RAM_start_addr\[7\]
*543 RAM_start_addr\[8\]
*544 RAM_start_addr\[9\]
*545 RXD
*546 TXD
*547 WEN_all\[0\]
*548 WEN_all\[1\]
*549 WEN_all\[2\]
*550 WEN_all\[3\]
*551 WEN_all\[4\]
*552 WEN_all\[5\]
*553 WEN_all\[6\]
*554 WEN_all\[7\]
*555 WEb_ram
*556 boot_rom_en
*557 bus_addr\[0\]
*558 bus_addr\[1\]
*559 bus_addr\[2\]
*560 bus_addr\[3\]
*561 bus_addr\[4\]
*562 bus_addr\[5\]
*563 bus_cyc
*564 bus_data_gpios\[0\]
*565 bus_data_gpios\[1\]
*566 bus_data_gpios\[2\]
*567 bus_data_gpios\[3\]
*568 bus_data_gpios\[4\]
*569 bus_data_gpios\[5\]
*570 bus_data_gpios\[6\]
*571 bus_data_gpios\[7\]
*572 bus_data_out\[0\]
*573 bus_data_out\[1\]
*574 bus_data_out\[2\]
*575 bus_data_out\[3\]
*576 bus_data_out\[4\]
*577 bus_data_out\[5\]
*578 bus_data_out\[6\]
*579 bus_data_out\[7\]
*580 bus_data_serial_ports\[0\]
*581 bus_data_serial_ports\[1\]
*582 bus_data_serial_ports\[2\]
*583 bus_data_serial_ports\[3\]
*584 bus_data_serial_ports\[4\]
*585 bus_data_serial_ports\[5\]
*586 bus_data_serial_ports\[6\]
*587 bus_data_serial_ports\[7\]
*588 bus_data_sid\[0\]
*589 bus_data_sid\[1\]
*590 bus_data_sid\[2\]
*591 bus_data_sid\[3\]
*592 bus_data_sid\[4\]
*593 bus_data_sid\[5\]
*594 bus_data_sid\[6\]
*595 bus_data_sid\[7\]
*596 bus_data_timers\[0\]
*597 bus_data_timers\[1\]
*598 bus_data_timers\[2\]
*599 bus_data_timers\[3\]
*600 bus_data_timers\[4\]
*601 bus_data_timers\[5\]
*602 bus_data_timers\[6\]
*603 bus_data_timers\[7\]
*604 bus_we_gpios
*605 bus_we_serial_ports
*606 bus_we_sid
*607 bus_we_timers
*608 cs_port\[0\]
*609 cs_port\[1\]
*610 cs_port\[2\]
*611 irq0
*612 irq1
*613 irq2
*614 irq3
*615 irq5
*616 irq6
*617 irq7
*618 last_addr\[0\]
*619 last_addr\[10\]
*620 last_addr\[11\]
*621 last_addr\[12\]
*622 last_addr\[13\]
*623 last_addr\[14\]
*624 last_addr\[15\]
*625 last_addr\[1\]
*626 last_addr\[2\]
*627 last_addr\[3\]
*628 last_addr\[4\]
*629 last_addr\[5\]
*630 last_addr\[6\]
*631 last_addr\[7\]
*632 last_addr\[8\]
*633 last_addr\[9\]
*634 le_hi_act
*635 le_lo_act
*636 pwm0
*637 pwm1
*638 pwm2
*639 ram_bus_in\[0\]
*640 ram_bus_in\[1\]
*641 ram_bus_in\[2\]
*642 ram_bus_in\[3\]
*643 ram_bus_in\[4\]
*644 ram_bus_in\[5\]
*645 ram_bus_in\[6\]
*646 ram_bus_in\[7\]
*647 ram_enabled
*648 requested_addr\[0\]
*649 requested_addr\[10\]
*650 requested_addr\[11\]
*651 requested_addr\[12\]
*652 requested_addr\[13\]
*653 requested_addr\[14\]
*654 requested_addr\[15\]
*655 requested_addr\[1\]
*656 requested_addr\[2\]
*657 requested_addr\[3\]
*658 requested_addr\[4\]
*659 requested_addr\[5\]
*660 requested_addr\[6\]
*661 requested_addr\[7\]
*662 requested_addr\[8\]
*663 requested_addr\[9\]
*664 reset
*665 rom_bus_in\[0\]
*666 rom_bus_in\[1\]
*667 rom_bus_in\[2\]
*668 rom_bus_in\[3\]
*669 rom_bus_in\[4\]
*670 rom_bus_in\[5\]
*671 rom_bus_in\[6\]
*672 rom_bus_in\[7\]
*673 rom_bus_out\[0\]
*674 rom_bus_out\[1\]
*675 rom_bus_out\[2\]
*676 rom_bus_out\[3\]
*677 rom_bus_out\[4\]
*678 rom_bus_out\[5\]
*679 rom_bus_out\[6\]
*680 rom_bus_out\[7\]
*681 tmr0_clk
*682 tmr0_o
*683 tmr1_clk
*684 tmr1_o
*685 avali_logo
*686 boot_rom
*687 gpios
*688 ram_controller
*689 serial_ports
*690 sid
*691 sram0
*692 sram1
*693 sram2
*694 sram3
*695 sram4
*696 sram5
*697 sram6
*698 sram7
*699 timers
*700 wrapped_as2650

*PORTS
io_in[0] I
io_in[10] I
io_in[11] I
io_in[12] I
io_in[13] I
io_in[14] I
io_in[15] I
io_in[16] I
io_in[17] I
io_in[18] I
io_in[19] I
io_in[1] I
io_in[20] I
io_in[21] I
io_in[22] I
io_in[23] I
io_in[24] I
io_in[25] I
io_in[26] I
io_in[27] I
io_in[28] I
io_in[29] I
io_in[2] I
io_in[30] I
io_in[31] I
io_in[32] I
io_in[33] I
io_in[34] I
io_in[35] I
io_in[36] I
io_in[37] I
io_in[3] I
io_in[4] I
io_in[5] I
io_in[6] I
io_in[7] I
io_in[8] I
io_in[9] I
io_oeb[0] O
io_oeb[10] O
io_oeb[11] O
io_oeb[12] O
io_oeb[13] O
io_oeb[14] O
io_oeb[15] O
io_oeb[16] O
io_oeb[17] O
io_oeb[18] O
io_oeb[19] O
io_oeb[1] O
io_oeb[20] O
io_oeb[21] O
io_oeb[22] O
io_oeb[23] O
io_oeb[24] O
io_oeb[25] O
io_oeb[26] O
io_oeb[27] O
io_oeb[28] O
io_oeb[29] O
io_oeb[2] O
io_oeb[30] O
io_oeb[31] O
io_oeb[32] O
io_oeb[33] O
io_oeb[34] O
io_oeb[35] O
io_oeb[36] O
io_oeb[37] O
io_oeb[3] O
io_oeb[4] O
io_oeb[5] O
io_oeb[6] O
io_oeb[7] O
io_oeb[8] O
io_oeb[9] O
io_out[0] O
io_out[10] O
io_out[11] O
io_out[12] O
io_out[13] O
io_out[14] O
io_out[15] O
io_out[16] O
io_out[17] O
io_out[18] O
io_out[19] O
io_out[1] O
io_out[20] O
io_out[21] O
io_out[22] O
io_out[23] O
io_out[24] O
io_out[25] O
io_out[26] O
io_out[27] O
io_out[28] O
io_out[29] O
io_out[2] O
io_out[30] O
io_out[31] O
io_out[32] O
io_out[33] O
io_out[34] O
io_out[35] O
io_out[36] O
io_out[37] O
io_out[3] O
io_out[4] O
io_out[5] O
io_out[6] O
io_out[7] O
io_out[8] O
io_out[9] O
la_data_in[0] I
la_data_in[10] I
la_data_in[11] I
la_data_in[12] I
la_data_in[13] I
la_data_in[14] I
la_data_in[15] I
la_data_in[16] I
la_data_in[17] I
la_data_in[18] I
la_data_in[19] I
la_data_in[1] I
la_data_in[20] I
la_data_in[21] I
la_data_in[22] I
la_data_in[23] I
la_data_in[24] I
la_data_in[25] I
la_data_in[26] I
la_data_in[27] I
la_data_in[28] I
la_data_in[29] I
la_data_in[2] I
la_data_in[30] I
la_data_in[31] I
la_data_in[32] I
la_data_in[33] I
la_data_in[34] I
la_data_in[35] I
la_data_in[36] I
la_data_in[37] I
la_data_in[38] I
la_data_in[39] I
la_data_in[3] I
la_data_in[40] I
la_data_in[41] I
la_data_in[42] I
la_data_in[43] I
la_data_in[44] I
la_data_in[45] I
la_data_in[46] I
la_data_in[47] I
la_data_in[48] I
la_data_in[49] I
la_data_in[4] I
la_data_in[50] I
la_data_in[51] I
la_data_in[52] I
la_data_in[53] I
la_data_in[54] I
la_data_in[55] I
la_data_in[56] I
la_data_in[57] I
la_data_in[58] I
la_data_in[59] I
la_data_in[5] I
la_data_in[60] I
la_data_in[61] I
la_data_in[62] I
la_data_in[63] I
la_data_in[6] I
la_data_in[7] I
la_data_in[8] I
la_data_in[9] I
la_data_out[0] O
la_data_out[10] O
la_data_out[11] O
la_data_out[12] O
la_data_out[13] O
la_data_out[14] O
la_data_out[15] O
la_data_out[16] O
la_data_out[17] O
la_data_out[18] O
la_data_out[19] O
la_data_out[1] O
la_data_out[20] O
la_data_out[21] O
la_data_out[22] O
la_data_out[23] O
la_data_out[24] O
la_data_out[25] O
la_data_out[26] O
la_data_out[27] O
la_data_out[28] O
la_data_out[29] O
la_data_out[2] O
la_data_out[30] O
la_data_out[31] O
la_data_out[32] O
la_data_out[33] O
la_data_out[34] O
la_data_out[35] O
la_data_out[36] O
la_data_out[37] O
la_data_out[38] O
la_data_out[39] O
la_data_out[3] O
la_data_out[40] O
la_data_out[41] O
la_data_out[42] O
la_data_out[43] O
la_data_out[44] O
la_data_out[45] O
la_data_out[46] O
la_data_out[47] O
la_data_out[48] O
la_data_out[49] O
la_data_out[4] O
la_data_out[50] O
la_data_out[51] O
la_data_out[52] O
la_data_out[53] O
la_data_out[54] O
la_data_out[55] O
la_data_out[56] O
la_data_out[57] O
la_data_out[58] O
la_data_out[59] O
la_data_out[5] O
la_data_out[60] O
la_data_out[61] O
la_data_out[62] O
la_data_out[63] O
la_data_out[6] O
la_data_out[7] O
la_data_out[8] O
la_data_out[9] O
la_oenb[0] I
la_oenb[10] I
la_oenb[11] I
la_oenb[12] I
la_oenb[13] I
la_oenb[14] I
la_oenb[15] I
la_oenb[16] I
la_oenb[17] I
la_oenb[18] I
la_oenb[19] I
la_oenb[1] I
la_oenb[20] I
la_oenb[21] I
la_oenb[22] I
la_oenb[23] I
la_oenb[24] I
la_oenb[25] I
la_oenb[26] I
la_oenb[27] I
la_oenb[28] I
la_oenb[29] I
la_oenb[2] I
la_oenb[30] I
la_oenb[31] I
la_oenb[32] I
la_oenb[33] I
la_oenb[34] I
la_oenb[35] I
la_oenb[36] I
la_oenb[37] I
la_oenb[38] I
la_oenb[39] I
la_oenb[3] I
la_oenb[40] I
la_oenb[41] I
la_oenb[42] I
la_oenb[43] I
la_oenb[44] I
la_oenb[45] I
la_oenb[46] I
la_oenb[47] I
la_oenb[48] I
la_oenb[49] I
la_oenb[4] I
la_oenb[50] I
la_oenb[51] I
la_oenb[52] I
la_oenb[53] I
la_oenb[54] I
la_oenb[55] I
la_oenb[56] I
la_oenb[57] I
la_oenb[58] I
la_oenb[59] I
la_oenb[5] I
la_oenb[60] I
la_oenb[61] I
la_oenb[62] I
la_oenb[63] I
la_oenb[6] I
la_oenb[7] I
la_oenb[8] I
la_oenb[9] I
user_clock2 I
user_irq[0] O
user_irq[1] O
user_irq[2] O
wb_clk_i I
wb_rst_i I
wbs_ack_o O
wbs_adr_i[0] I
wbs_adr_i[10] I
wbs_adr_i[11] I
wbs_adr_i[12] I
wbs_adr_i[13] I
wbs_adr_i[14] I
wbs_adr_i[15] I
wbs_adr_i[16] I
wbs_adr_i[17] I
wbs_adr_i[18] I
wbs_adr_i[19] I
wbs_adr_i[1] I
wbs_adr_i[20] I
wbs_adr_i[21] I
wbs_adr_i[22] I
wbs_adr_i[23] I
wbs_adr_i[24] I
wbs_adr_i[25] I
wbs_adr_i[26] I
wbs_adr_i[27] I
wbs_adr_i[28] I
wbs_adr_i[29] I
wbs_adr_i[2] I
wbs_adr_i[30] I
wbs_adr_i[31] I
wbs_adr_i[3] I
wbs_adr_i[4] I
wbs_adr_i[5] I
wbs_adr_i[6] I
wbs_adr_i[7] I
wbs_adr_i[8] I
wbs_adr_i[9] I
wbs_cyc_i I
wbs_dat_i[0] I
wbs_dat_i[10] I
wbs_dat_i[11] I
wbs_dat_i[12] I
wbs_dat_i[13] I
wbs_dat_i[14] I
wbs_dat_i[15] I
wbs_dat_i[16] I
wbs_dat_i[17] I
wbs_dat_i[18] I
wbs_dat_i[19] I
wbs_dat_i[1] I
wbs_dat_i[20] I
wbs_dat_i[21] I
wbs_dat_i[22] I
wbs_dat_i[23] I
wbs_dat_i[24] I
wbs_dat_i[25] I
wbs_dat_i[26] I
wbs_dat_i[27] I
wbs_dat_i[28] I
wbs_dat_i[29] I
wbs_dat_i[2] I
wbs_dat_i[30] I
wbs_dat_i[31] I
wbs_dat_i[3] I
wbs_dat_i[4] I
wbs_dat_i[5] I
wbs_dat_i[6] I
wbs_dat_i[7] I
wbs_dat_i[8] I
wbs_dat_i[9] I
wbs_dat_o[0] O
wbs_dat_o[10] O
wbs_dat_o[11] O
wbs_dat_o[12] O
wbs_dat_o[13] O
wbs_dat_o[14] O
wbs_dat_o[15] O
wbs_dat_o[16] O
wbs_dat_o[17] O
wbs_dat_o[18] O
wbs_dat_o[19] O
wbs_dat_o[1] O
wbs_dat_o[20] O
wbs_dat_o[21] O
wbs_dat_o[22] O
wbs_dat_o[23] O
wbs_dat_o[24] O
wbs_dat_o[25] O
wbs_dat_o[26] O
wbs_dat_o[27] O
wbs_dat_o[28] O
wbs_dat_o[29] O
wbs_dat_o[2] O
wbs_dat_o[30] O
wbs_dat_o[31] O
wbs_dat_o[3] O
wbs_dat_o[4] O
wbs_dat_o[5] O
wbs_dat_o[6] O
wbs_dat_o[7] O
wbs_dat_o[8] O
wbs_dat_o[9] O
wbs_sel_i[0] I
wbs_sel_i[1] I
wbs_sel_i[2] I
wbs_sel_i[3] I
wbs_stb_i I
wbs_we_i I

*D_NET *1 0.532465
*CONN
*P io_in[0] I
*I *700:io_in[0] I *D wrapped_as2650
*CAP
1 io_in[0] 0.0614407
2 *700:io_in[0] 0.000271646
3 *1:13 0.0286093
4 *1:11 0.0283376
5 *1:9 0.0851708
6 *1:7 0.0851708
7 *1:5 0.0614407
8 *1:5 *192:13 0.00535391
9 *1:9 *42:22 0
10 *1:9 *97:18 0
11 *1:9 *214:9 0.0286679
12 *1:9 *308:9 0.00351815
13 *1:9 *590:13 0.000501357
14 *1:9 *599:51 0
15 *1:9 *627:22 0.0684254
16 *1:13 *33:21 0
17 *1:13 *42:18 0.0549891
18 *1:13 *98:22 0.0032188
19 *1:13 *555:9 0.00106031
20 *1:13 *599:53 0.00276347
21 *1:13 *607:9 0.00330978
22 *1:13 *626:9 0.00481492
23 *1:13 *628:9 0.00540078
*RES
1 io_in[0] *1:5 549.38 
2 *1:5 *1:7 4.5 
3 *1:7 *1:9 787.009 
4 *1:9 *1:11 4.5 
5 *1:11 *1:13 189.745 
6 *1:13 *700:io_in[0] 15.3609 
*END

*D_NET *2 0.61955
*CONN
*P io_in[10] I
*I *700:io_in[10] I *D wrapped_as2650
*CAP
1 io_in[10] 0.00286306
2 *700:io_in[10] 0.000685116
3 *2:21 0.00310231
4 *2:19 0.00241719
5 *2:17 0.00578209
6 *2:15 0.00578209
7 *2:13 0.133001
8 *2:11 0.135865
9 *2:11 *40:22 0.00434222
10 *2:11 *76:25 0.00200401
11 *2:13 *700:bus_in_gpios[7] 0.0218246
12 *2:17 *618:13 0.0314203
13 *2:21 *5:21 0.00332384
14 *2:21 *33:21 0.0100884
15 *2:21 *35:21 0.0010164
16 *2:21 *38:29 0.140132
17 *2:21 *611:28 0.00254437
18 *2:21 *611:34 0.000863286
19 *2:21 *612:25 0.079653
20 *2:21 *612:35 0.000666026
21 *2:21 *612:37 0.032174
*RES
1 io_in[10] *2:11 47.3277 
2 *2:11 *2:13 248.901 
3 *2:13 *2:15 4.5 
4 *2:15 *2:17 83.2037 
5 *2:17 *2:19 4.5 
6 *2:19 *2:21 352.872 
7 *2:21 *700:io_in[10] 9.128 
*END

*D_NET *3 0.582563
*CONN
*P io_in[11] I
*I *700:io_in[11] I *D wrapped_as2650
*CAP
1 io_in[11] 0.024411
2 *700:io_in[11] 0.000100432
3 *3:33 0.00365339
4 *3:31 0.00434689
5 *3:23 0.00179667
6 *3:13 0.0104291
7 *3:11 0.00942633
8 *3:9 0.00762903
9 *3:7 0.00762903
10 *3:5 0.024411
11 *3:9 *41:59 0.00286499
12 *3:9 *598:31 0.00208193
13 *3:9 *598:33 0.00293395
14 *3:13 *4:31 0.000206658
15 *3:13 *19:21 0.0258753
16 *3:13 *22:21 0
17 *3:13 *565:7 0.00201506
18 *3:13 *612:17 0.129979
19 *3:23 *516:25 0.00386808
20 *3:23 *598:45 0.0139291
21 *3:31 *516:23 0.000129928
22 *3:31 *516:25 0.0024529
23 *3:31 *517:23 0.000847744
24 *3:31 *598:45 0.000269668
25 *3:31 *599:51 3.85916e-05
26 *3:31 *607:13 0.000376019
27 *3:33 *41:21 0.152505
28 *3:33 *98:22 0.0171735
29 *3:33 *517:13 0.000685374
30 *3:33 *555:9 0.00739751
31 *3:33 *607:9 0
32 *3:33 *616:23 0.121774
33 *3:33 *630:9 0.00132524
*RES
1 io_in[11] *3:5 213.668 
2 *3:5 *3:7 4.5 
3 *3:7 *3:9 76.232 
4 *3:9 *3:11 4.5 
5 *3:11 *3:13 332.696 
6 *3:13 *3:23 44.748 
7 *3:23 *3:31 17.604 
8 *3:31 *3:33 390.312 
9 *3:33 *700:io_in[11] 4.968 
*END

*D_NET *4 0.749356
*CONN
*P io_in[12] I
*I *700:io_in[12] I *D wrapped_as2650
*CAP
1 io_in[12] 0.00122169
2 *700:io_in[12] 0.000632794
3 *4:41 0.00339956
4 *4:39 0.00276677
5 *4:37 0.000375679
6 *4:35 0.000375679
7 *4:33 0.00766823
8 *4:31 0.00992779
9 *4:27 0.00247005
10 *4:17 0.0054615
11 *4:15 0.00525101
12 *4:13 0.00386342
13 *4:11 0.00386342
14 *4:9 0.00718722
15 *4:7 0.00840891
16 *4:9 *80:27 0.00513913
17 *4:13 *41:63 0.0814295
18 *4:13 *42:34 0.00739351
19 *4:13 *596:13 4.26493e-06
20 *4:13 *600:13 1.94294e-05
21 *4:13 *601:13 0.0577516
22 *4:17 *24:17 0
23 *4:17 *41:59 0.0345012
24 *4:17 *100:19 0.00151948
25 *4:17 *598:27 1.87076e-05
26 *4:17 *598:31 0.000657587
27 *4:17 *600:17 0
28 *4:27 *22:41 0.00033935
29 *4:27 *41:57 0.000151991
30 *4:27 *41:59 2.35476e-05
31 *4:27 *100:19 0.000339337
32 *4:31 *20:21 0.00621832
33 *4:31 *22:21 0.00480783
34 *4:31 *612:17 0.000396658
35 *4:33 *20:21 0.115619
36 *4:33 *22:21 0.0237435
37 *4:33 *96:14 1.63488e-05
38 *4:33 *612:17 7.72932e-05
39 *4:37 *41:25 0.00205027
40 *4:37 *59:10 0.0182292
41 *4:37 *95:18 0.0217509
42 *4:37 *96:18 0.00139309
43 *4:41 *33:21 0.0128466
44 *4:41 *35:21 0
45 *4:41 *37:21 0.149512
46 *4:41 *38:29 0.137268
47 *4:41 *599:53 0
48 *4:41 *612:25 0.00305691
49 *3:13 *4:31 0.000206658
*RES
1 io_in[12] *4:7 14.12 
2 *4:7 *4:9 60.216 
3 *4:9 *4:11 4.5 
4 *4:11 *4:13 204.36 
5 *4:13 *4:15 4.5 
6 *4:15 *4:17 87.4826 
7 *4:17 *4:27 8.64143 
8 *4:27 *4:31 46.696 
9 *4:31 *4:33 291.408 
10 *4:33 *4:35 4.5 
11 *4:35 *4:37 56.264 
12 *4:37 *4:39 4.5 
13 *4:39 *4:41 380.328 
14 *4:41 *700:io_in[12] 8.712 
*END

*D_NET *5 0.510051
*CONN
*P io_in[13] I
*I *700:io_in[13] I *D wrapped_as2650
*CAP
1 io_in[13] 0.00119074
2 *700:io_in[13] 0.000815173
3 *5:21 0.00208247
4 *5:19 0.0012673
5 *5:17 0.0244058
6 *5:15 0.0244058
7 *5:13 0.0547946
8 *5:11 0.0547946
9 *5:9 0.00403334
10 *5:7 0.00522408
11 *5:9 io_out[13] 0.00896763
12 *5:13 *18:13 0.293082
13 *5:13 *557:35 0.00193802
14 *5:13 *561:31 0
15 *5:13 *575:65 0.000380664
16 *5:13 *576:71 0.000419139
17 *5:13 *602:10 0
18 *5:13 *603:13 0
19 *5:21 *35:21 0.0121808
20 *5:21 *611:34 0.0167446
21 *2:21 *5:21 0.00332384
*RES
1 io_in[13] *5:7 14.12 
2 *5:7 *5:9 46.6626 
3 *5:9 *5:11 4.5 
4 *5:11 *5:13 362.225 
5 *5:13 *5:15 4.5 
6 *5:15 *5:17 213.895 
7 *5:17 *5:19 4.5 
8 *5:19 *5:21 72.28 
9 *5:21 *700:io_in[13] 9.752 
*END

*D_NET *6 0.417728
*CONN
*P io_in[14] I
*I *700:io_in[14] I *D wrapped_as2650
*CAP
1 io_in[14] 0.0893842
2 *700:io_in[14] 0.00128459
3 *6:13 0.0122764
4 *6:11 0.0109918
5 *6:9 0.0287105
6 *6:7 0.0287105
7 *6:5 0.0893842
8 *6:13 *7:23 0.0153565
9 *6:13 *107:9 0.0864602
10 *6:13 *584:13 0.0551691
*RES
1 io_in[14] *6:5 614.9 
2 *6:5 *6:7 4.5 
3 *6:7 *6:9 237.224 
4 *6:9 *6:11 4.5 
5 *6:11 *6:13 307.528 
6 *6:13 *700:io_in[14] 13.08 
*END

*D_NET *7 0.359937
*CONN
*P io_in[15] I
*I *700:io_in[15] I *D wrapped_as2650
*CAP
1 io_in[15] 0.00128157
2 *700:io_in[15] 0.00140003
3 *7:23 0.0185067
4 *7:21 0.0171067
5 *7:19 0.0335827
6 *7:17 0.0335827
7 *7:15 0.0532557
8 *7:13 0.0545373
9 *7:15 *10:9 0.0078214
10 *7:19 *557:23 0
11 *7:19 *558:27 0
12 *7:19 *572:29 0
13 *7:19 *573:35 0
14 *7:19 *574:37 2.9069e-06
15 *7:19 *576:39 1.66055e-06
16 *7:19 *590:13 0.0179891
17 *7:23 *107:9 0.0845224
18 *7:23 *613:25 0.000307978
19 *7:23 *615:25 0.0206819
20 *7:23 *666:25 0
21 *6:13 *7:23 0.0153565
*RES
1 io_in[15] *7:13 24.6169 
2 *7:13 *7:15 226.628 
3 *7:15 *7:17 4.5 
4 *7:17 *7:19 288.871 
5 *7:19 *7:21 4.5 
6 *7:21 *7:23 368.056 
7 *7:23 *700:io_in[15] 12.664 
*END

*D_NET *8 0.44682
*CONN
*P io_in[16] I
*I *700:io_in[16] I *D wrapped_as2650
*CAP
1 io_in[16] 0.00106383
2 *700:io_in[16] 0.00773853
3 *8:19 0.00773853
4 *8:17 0.0397397
5 *8:15 0.0397397
6 *8:13 0.0253428
7 *8:11 0.0253428
8 *8:9 0.0133046
9 *8:7 0.0143684
10 *8:9 *11:9 0.00157846
11 *8:9 *16:9 0.00274745
12 *8:9 *89:17 0.123128
13 *8:9 *90:17 0.120623
14 *8:13 *546:13 0.0243641
*RES
1 io_in[16] *8:7 13.496 
2 *8:7 *8:9 427.96 
3 *8:9 *8:11 4.5 
4 *8:11 *8:13 237.848 
5 *8:13 *8:15 4.5 
6 *8:15 *8:17 341.224 
7 *8:17 *8:19 4.5 
8 *8:19 *700:io_in[16] 61.204 
*END

*D_NET *9 0.443744
*CONN
*P io_in[17] I
*I *700:io_in[17] I *D wrapped_as2650
*CAP
1 io_in[17] 0.00103571
2 *700:io_in[17] 0.00737487
3 *9:19 0.00737487
4 *9:17 0.0414185
5 *9:15 0.0414185
6 *9:13 0.0171547
7 *9:11 0.0171547
8 *9:9 0.000807916
9 *9:7 0.00184363
10 *9:9 *11:9 0.000936206
11 *9:9 *87:17 0.111793
12 *9:9 *89:17 0.113961
13 *9:13 *577:29 0.0179705
14 *9:13 *588:16 0.0635001
*RES
1 io_in[17] *9:7 13.08 
2 *9:7 *9:9 286.104 
3 *9:9 *9:11 4.5 
4 *9:11 *9:13 241.384 
5 *9:13 *9:15 4.5 
6 *9:15 *9:17 355.16 
7 *9:17 *9:19 4.5 
8 *9:19 *700:io_in[17] 58.084 
*END

*D_NET *10 0.356798
*CONN
*P io_in[18] I
*I *700:io_in[18] I *D wrapped_as2650
*CAP
1 io_in[18] 0.00132394
2 *700:io_in[18] 0.00818757
3 *10:19 0.00818757
4 *10:17 0.0279669
5 *10:15 0.0279669
6 *10:13 0.0191442
7 *10:11 0.0191442
8 *10:9 0.00975748
9 *10:7 0.0110814
10 *10:9 *92:17 0.0662923
11 *10:13 *589:10 0.0615165
12 *10:17 *69:9 0.0884076
13 *7:15 *10:9 0.0078214
*RES
1 io_in[18] *10:7 14.328 
2 *10:7 *10:9 166.504 
3 *10:9 *10:11 4.5 
4 *10:11 *10:13 233.688 
5 *10:13 *10:15 4.5 
6 *10:15 *10:17 346.84 
7 *10:17 *10:19 4.5 
8 *10:19 *700:io_in[18] 64.532 
*END

*D_NET *11 0.279962
*CONN
*P io_in[19] I
*I *687:io_in[0] I *D gpios
*CAP
1 io_in[19] 0.000966852
2 *687:io_in[0] 0.00493533
3 *11:19 0.00649898
4 *11:13 0.0210611
5 *11:11 0.0194975
6 *11:9 0.0160061
7 *11:7 0.0169729
8 *11:9 *87:17 0.095673
9 *11:9 *89:17 0.000461205
10 *11:13 *15:13 0.0801985
11 *11:19 *17:13 0.0131908
12 *11:19 *313:206 0.00198469
13 *8:9 *11:9 0.00157846
14 *9:9 *11:9 0.000936206
*RES
1 io_in[19] *11:7 12.664 
2 *11:7 *11:9 268.216 
3 *11:9 *11:11 4.5 
4 *11:11 *11:13 263.432 
5 *11:13 *11:19 43.008 
6 *11:19 *687:io_in[0] 36.452 
*END

*D_NET *12 0.681188
*CONN
*P io_in[1] I
*I *700:io_in[1] I *D wrapped_as2650
*CAP
1 io_in[1] 0.00119088
2 *700:io_in[1] 0.0016403
3 *12:17 0.0397045
4 *12:15 0.0380642
5 *12:13 0.0642395
6 *12:11 0.0642395
7 *12:9 0.0322912
8 *12:7 0.0334821
9 *700:io_in[1] io_oeb[27] 0.0102552
10 *700:io_in[1] *700:io_in[3] 0.00394086
11 *700:io_in[1] *33:21 0.000379942
12 *700:io_in[1] *35:21 0
13 *12:9 *32:9 0.0966574
14 *12:9 *50:17 0.0294381
15 *12:13 io_out[6] 0
16 *12:13 *697:D[1] 0
17 *12:13 *697:WEN[1] 0
18 *12:13 *33:13 0.217635
19 *12:13 *447:9 0.00246715
20 *12:13 *497:11 0.0242211
21 *12:13 *499:8 0.00310052
22 *12:13 *499:10 0
23 *12:13 *501:12 0.0030966
24 *12:13 *501:14 0.0149991
25 *12:13 *554:73 0.000145014
*RES
1 io_in[1] *12:7 14.12 
2 *12:7 *12:9 394.888 
3 *12:9 *12:11 4.5 
4 *12:11 *12:13 951.704 
5 *12:13 *12:15 4.5 
6 *12:15 *12:17 320.424 
7 *12:17 *700:io_in[1] 39.108 
*END

*D_NET *13 0.331858
*CONN
*P io_in[20] I
*I *687:io_in[1] I *D gpios
*CAP
1 io_in[20] 0.00159831
2 *687:io_in[1] 0.00095299
3 *13:19 0.0037856
4 *13:13 0.0243448
5 *13:11 0.0215122
6 *13:9 0.024033
7 *13:7 0.0256313
8 *13:9 io_oeb[14] 0.0117209
9 *13:9 *47:13 0.114162
10 *13:13 *52:13 0.0884451
11 *13:19 *14:17 0.0005469
12 *13:19 *15:17 0.0140444
13 *13:19 *18:29 0.00108068
*RES
1 io_in[20] *13:7 17.032 
2 *13:7 *13:9 388.232 
3 *13:9 *13:11 4.5 
4 *13:11 *13:13 289.848 
5 *13:13 *13:19 48.416 
6 *13:19 *687:io_in[1] 5.668 
*END

*D_NET *14 0.434305
*CONN
*P io_in[21] I
*I *687:io_in[2] I *D gpios
*CAP
1 io_in[21] 0.00928857
2 *687:io_in[2] 0.000863717
3 *14:17 0.00150982
4 *14:13 0.0146147
5 *14:11 0.0139686
6 *14:9 0.0298962
7 *14:7 0.0298962
8 *14:5 0.00928857
9 *14:9 *52:17 0.20237
10 *14:9 *664:99 0
11 *14:13 *53:13 0.0886772
12 *14:17 *687:io_in[12] 0.000275795
13 *14:17 *15:17 0.0150437
14 *14:17 *18:29 0.000527151
15 *14:17 *91:9 0.0175377
16 *13:19 *14:17 0.0005469
*RES
1 io_in[21] *14:5 74.932 
2 *14:5 *14:7 4.5 
3 *14:7 *14:9 508.456 
4 *14:9 *14:11 4.5 
5 *14:11 *14:13 227.864 
6 *14:13 *14:17 49.532 
7 *14:17 *687:io_in[2] 9.752 
*END

*D_NET *15 0.426412
*CONN
*P io_in[22] I
*I *687:io_in[3] I *D gpios
*CAP
1 io_in[22] 0.00814031
2 *687:io_in[3] 0.000887942
3 *15:17 0.00163091
4 *15:13 0.0171528
5 *15:11 0.0164098
6 *15:9 0.0500614
7 *15:7 0.0500614
8 *15:5 0.00814031
9 *15:9 *48:13 0.163253
10 *15:17 *18:29 0.000962409
11 *15:17 *91:9 0.000425766
12 *11:13 *15:13 0.0801985
13 *13:19 *15:17 0.0140444
14 *14:17 *15:17 0.0150437
*RES