*SPEF "ieee 1481-1999"
*DESIGN "user_project_wrapper"
*DATE "11:11:11 Fri 11 11, 1111"
*VENDOR "OpenRCX"
*PROGRAM "Parallel Extraction"
*VERSION "1.0"
*DESIGN_FLOW "NAME_SCOPE LOCAL" "PIN_CAP NONE"
*DIVIDER /
*DELIMITER :
*BUS_DELIMITER []
*T_UNIT 1 NS
*C_UNIT 1 PF
*R_UNIT 1 OHM
*L_UNIT 1 HENRY

*NAME_MAP
*1 io_in[0]
*2 io_in[10]
*3 io_in[11]
*4 io_in[12]
*5 io_in[13]
*6 io_in[14]
*7 io_in[15]
*8 io_in[16]
*9 io_in[17]
*10 io_in[18]
*11 io_in[19]
*12 io_in[1]
*13 io_in[20]
*14 io_in[21]
*15 io_in[22]
*16 io_in[23]
*17 io_in[24]
*18 io_in[25]
*19 io_in[26]
*20 io_in[27]
*21 io_in[28]
*22 io_in[29]
*23 io_in[2]
*24 io_in[30]
*25 io_in[31]
*26 io_in[32]
*27 io_in[33]
*28 io_in[34]
*29 io_in[35]
*30 io_in[36]
*31 io_in[37]
*32 io_in[3]
*33 io_in[4]
*34 io_in[5]
*35 io_in[6]
*36 io_in[7]
*37 io_in[8]
*38 io_in[9]
*39 io_oeb[0]
*40 io_oeb[10]
*41 io_oeb[11]
*42 io_oeb[12]
*43 io_oeb[13]
*44 io_oeb[14]
*45 io_oeb[15]
*46 io_oeb[16]
*47 io_oeb[17]
*48 io_oeb[18]
*49 io_oeb[19]
*50 io_oeb[1]
*51 io_oeb[20]
*52 io_oeb[21]
*53 io_oeb[22]
*54 io_oeb[23]
*55 io_oeb[24]
*56 io_oeb[25]
*57 io_oeb[26]
*58 io_oeb[27]
*59 io_oeb[28]
*60 io_oeb[29]
*61 io_oeb[2]
*62 io_oeb[30]
*63 io_oeb[31]
*64 io_oeb[32]
*65 io_oeb[33]
*66 io_oeb[34]
*67 io_oeb[35]
*68 io_oeb[36]
*69 io_oeb[37]
*70 io_oeb[3]
*71 io_oeb[4]
*72 io_oeb[5]
*73 io_oeb[6]
*74 io_oeb[7]
*75 io_oeb[8]
*76 io_oeb[9]
*77 io_out[0]
*78 io_out[10]
*79 io_out[11]
*80 io_out[12]
*81 io_out[13]
*82 io_out[14]
*83 io_out[15]
*84 io_out[16]
*85 io_out[17]
*86 io_out[18]
*87 io_out[19]
*88 io_out[1]
*89 io_out[20]
*90 io_out[21]
*91 io_out[22]
*92 io_out[23]
*93 io_out[24]
*94 io_out[25]
*95 io_out[26]
*96 io_out[27]
*97 io_out[28]
*98 io_out[29]
*99 io_out[2]
*100 io_out[30]
*101 io_out[31]
*102 io_out[32]
*103 io_out[33]
*104 io_out[34]
*105 io_out[35]
*106 io_out[36]
*107 io_out[37]
*108 io_out[3]
*109 io_out[4]
*110 io_out[5]
*111 io_out[6]
*112 io_out[7]
*113 io_out[8]
*114 io_out[9]
*115 la_data_in[0]
*116 la_data_in[10]
*117 la_data_in[11]
*118 la_data_in[12]
*119 la_data_in[13]
*120 la_data_in[14]
*121 la_data_in[15]
*122 la_data_in[16]
*123 la_data_in[17]
*124 la_data_in[18]
*125 la_data_in[19]
*126 la_data_in[1]
*127 la_data_in[20]
*128 la_data_in[21]
*129 la_data_in[22]
*130 la_data_in[23]
*131 la_data_in[24]
*132 la_data_in[25]
*133 la_data_in[26]
*134 la_data_in[27]
*135 la_data_in[28]
*136 la_data_in[29]
*137 la_data_in[2]
*138 la_data_in[30]
*139 la_data_in[31]
*140 la_data_in[32]
*141 la_data_in[33]
*142 la_data_in[34]
*143 la_data_in[35]
*144 la_data_in[36]
*145 la_data_in[37]
*146 la_data_in[38]
*147 la_data_in[39]
*148 la_data_in[3]
*149 la_data_in[40]
*150 la_data_in[41]
*151 la_data_in[42]
*152 la_data_in[43]
*153 la_data_in[44]
*154 la_data_in[45]
*155 la_data_in[46]
*156 la_data_in[47]
*157 la_data_in[48]
*158 la_data_in[49]
*159 la_data_in[4]
*160 la_data_in[50]
*161 la_data_in[51]
*162 la_data_in[52]
*163 la_data_in[53]
*164 la_data_in[54]
*165 la_data_in[55]
*166 la_data_in[56]
*167 la_data_in[57]
*168 la_data_in[58]
*169 la_data_in[59]
*170 la_data_in[5]
*171 la_data_in[60]
*172 la_data_in[61]
*173 la_data_in[62]
*174 la_data_in[63]
*175 la_data_in[6]
*176 la_data_in[7]
*177 la_data_in[8]
*178 la_data_in[9]
*179 la_data_out[0]
*180 la_data_out[10]
*181 la_data_out[11]
*182 la_data_out[12]
*183 la_data_out[13]
*184 la_data_out[14]
*185 la_data_out[15]
*186 la_data_out[16]
*187 la_data_out[17]
*188 la_data_out[18]
*189 la_data_out[19]
*190 la_data_out[1]
*191 la_data_out[20]
*192 la_data_out[21]
*193 la_data_out[22]
*194 la_data_out[23]
*195 la_data_out[24]
*196 la_data_out[25]
*197 la_data_out[26]
*198 la_data_out[27]
*199 la_data_out[28]
*200 la_data_out[29]
*201 la_data_out[2]
*202 la_data_out[30]
*203 la_data_out[31]
*204 la_data_out[32]
*205 la_data_out[33]
*206 la_data_out[34]
*207 la_data_out[35]
*208 la_data_out[36]
*209 la_data_out[37]
*210 la_data_out[38]
*211 la_data_out[39]
*212 la_data_out[3]
*213 la_data_out[40]
*214 la_data_out[41]
*215 la_data_out[42]
*216 la_data_out[43]
*217 la_data_out[44]
*218 la_data_out[45]
*219 la_data_out[46]
*220 la_data_out[47]
*221 la_data_out[48]
*222 la_data_out[49]
*223 la_data_out[4]
*224 la_data_out[50]
*225 la_data_out[51]
*226 la_data_out[52]
*227 la_data_out[53]
*228 la_data_out[54]
*229 la_data_out[55]
*230 la_data_out[56]
*231 la_data_out[57]
*232 la_data_out[58]
*233 la_data_out[59]
*234 la_data_out[5]
*235 la_data_out[60]
*236 la_data_out[61]
*237 la_data_out[62]
*238 la_data_out[63]
*239 la_data_out[6]
*240 la_data_out[7]
*241 la_data_out[8]
*242 la_data_out[9]
*243 la_oenb[0]
*244 la_oenb[10]
*245 la_oenb[11]
*246 la_oenb[12]
*247 la_oenb[13]
*248 la_oenb[14]
*249 la_oenb[15]
*250 la_oenb[16]
*251 la_oenb[17]
*252 la_oenb[18]
*253 la_oenb[19]
*254 la_oenb[1]
*255 la_oenb[20]
*256 la_oenb[21]
*257 la_oenb[22]
*258 la_oenb[23]
*259 la_oenb[24]
*260 la_oenb[25]
*261 la_oenb[26]
*262 la_oenb[27]
*263 la_oenb[28]
*264 la_oenb[29]
*265 la_oenb[2]
*266 la_oenb[30]
*267 la_oenb[31]
*268 la_oenb[32]
*269 la_oenb[33]
*270 la_oenb[34]
*271 la_oenb[35]
*272 la_oenb[36]
*273 la_oenb[37]
*274 la_oenb[38]
*275 la_oenb[39]
*276 la_oenb[3]
*277 la_oenb[40]
*278 la_oenb[41]
*279 la_oenb[42]
*280 la_oenb[43]
*281 la_oenb[44]
*282 la_oenb[45]
*283 la_oenb[46]
*284 la_oenb[47]
*285 la_oenb[48]
*286 la_oenb[49]
*287 la_oenb[4]
*288 la_oenb[50]
*289 la_oenb[51]
*290 la_oenb[52]
*291 la_oenb[53]
*292 la_oenb[54]
*293 la_oenb[55]
*294 la_oenb[56]
*295 la_oenb[57]
*296 la_oenb[58]
*297 la_oenb[59]
*298 la_oenb[5]
*299 la_oenb[60]
*300 la_oenb[61]
*301 la_oenb[62]
*302 la_oenb[63]
*303 la_oenb[6]
*304 la_oenb[7]
*305 la_oenb[8]
*306 la_oenb[9]
*307 user_clock2
*308 user_irq[0]
*309 user_irq[1]
*310 user_irq[2]
*313 wb_clk_i
*314 wb_rst_i
*315 wbs_ack_o
*316 wbs_adr_i[0]
*317 wbs_adr_i[10]
*318 wbs_adr_i[11]
*319 wbs_adr_i[12]
*320 wbs_adr_i[13]
*321 wbs_adr_i[14]
*322 wbs_adr_i[15]
*323 wbs_adr_i[16]
*324 wbs_adr_i[17]
*325 wbs_adr_i[18]
*326 wbs_adr_i[19]
*327 wbs_adr_i[1]
*328 wbs_adr_i[20]
*329 wbs_adr_i[21]
*330 wbs_adr_i[22]
*331 wbs_adr_i[23]
*332 wbs_adr_i[24]
*333 wbs_adr_i[25]
*334 wbs_adr_i[26]
*335 wbs_adr_i[27]
*336 wbs_adr_i[28]
*337 wbs_adr_i[29]
*338 wbs_adr_i[2]
*339 wbs_adr_i[30]
*340 wbs_adr_i[31]
*341 wbs_adr_i[3]
*342 wbs_adr_i[4]
*343 wbs_adr_i[5]
*344 wbs_adr_i[6]
*345 wbs_adr_i[7]
*346 wbs_adr_i[8]
*347 wbs_adr_i[9]
*348 wbs_cyc_i
*349 wbs_dat_i[0]
*350 wbs_dat_i[10]
*351 wbs_dat_i[11]
*352 wbs_dat_i[12]
*353 wbs_dat_i[13]
*354 wbs_dat_i[14]
*355 wbs_dat_i[15]
*356 wbs_dat_i[16]
*357 wbs_dat_i[17]
*358 wbs_dat_i[18]
*359 wbs_dat_i[19]
*360 wbs_dat_i[1]
*361 wbs_dat_i[20]
*362 wbs_dat_i[21]
*363 wbs_dat_i[22]
*364 wbs_dat_i[23]
*365 wbs_dat_i[24]
*366 wbs_dat_i[25]
*367 wbs_dat_i[26]
*368 wbs_dat_i[27]
*369 wbs_dat_i[28]
*370 wbs_dat_i[29]
*371 wbs_dat_i[2]
*372 wbs_dat_i[30]
*373 wbs_dat_i[31]
*374 wbs_dat_i[3]
*375 wbs_dat_i[4]
*376 wbs_dat_i[5]
*377 wbs_dat_i[6]
*378 wbs_dat_i[7]
*379 wbs_dat_i[8]
*380 wbs_dat_i[9]
*381 wbs_dat_o[0]
*382 wbs_dat_o[10]
*383 wbs_dat_o[11]
*384 wbs_dat_o[12]
*385 wbs_dat_o[13]
*386 wbs_dat_o[14]
*387 wbs_dat_o[15]
*388 wbs_dat_o[16]
*389 wbs_dat_o[17]
*390 wbs_dat_o[18]
*391 wbs_dat_o[19]
*392 wbs_dat_o[1]
*393 wbs_dat_o[20]
*394 wbs_dat_o[21]
*395 wbs_dat_o[22]
*396 wbs_dat_o[23]
*397 wbs_dat_o[24]
*398 wbs_dat_o[25]
*399 wbs_dat_o[26]
*400 wbs_dat_o[27]
*401 wbs_dat_o[28]
*402 wbs_dat_o[29]
*403 wbs_dat_o[2]
*404 wbs_dat_o[30]
*405 wbs_dat_o[31]
*406 wbs_dat_o[3]
*407 wbs_dat_o[4]
*408 wbs_dat_o[5]
*409 wbs_dat_o[6]
*410 wbs_dat_o[7]
*411 wbs_dat_o[8]
*412 wbs_dat_o[9]
*413 wbs_sel_i[0]
*414 wbs_sel_i[1]
*415 wbs_sel_i[2]
*416 wbs_sel_i[3]
*417 wbs_stb_i
*418 wbs_we_i
*419 wrapped_as2650

*PORTS
io_in[0] I
io_in[10] I
io_in[11] I
io_in[12] I
io_in[13] I
io_in[14] I
io_in[15] I
io_in[16] I
io_in[17] I
io_in[18] I
io_in[19] I
io_in[1] I
io_in[20] I
io_in[21] I
io_in[22] I
io_in[23] I
io_in[24] I
io_in[25] I
io_in[26] I
io_in[27] I
io_in[28] I
io_in[29] I
io_in[2] I
io_in[30] I
io_in[31] I
io_in[32] I
io_in[33] I
io_in[34] I
io_in[35] I
io_in[36] I
io_in[37] I
io_in[3] I
io_in[4] I
io_in[5] I
io_in[6] I
io_in[7] I
io_in[8] I
io_in[9] I
io_oeb[0] O
io_oeb[10] O
io_oeb[11] O
io_oeb[12] O
io_oeb[13] O
io_oeb[14] O
io_oeb[15] O
io_oeb[16] O
io_oeb[17] O
io_oeb[18] O
io_oeb[19] O
io_oeb[1] O
io_oeb[20] O
io_oeb[21] O
io_oeb[22] O
io_oeb[23] O
io_oeb[24] O
io_oeb[25] O
io_oeb[26] O
io_oeb[27] O
io_oeb[28] O
io_oeb[29] O
io_oeb[2] O
io_oeb[30] O
io_oeb[31] O
io_oeb[32] O
io_oeb[33] O
io_oeb[34] O
io_oeb[35] O
io_oeb[36] O
io_oeb[37] O
io_oeb[3] O
io_oeb[4] O
io_oeb[5] O
io_oeb[6] O
io_oeb[7] O
io_oeb[8] O
io_oeb[9] O
io_out[0] O
io_out[10] O
io_out[11] O
io_out[12] O
io_out[13] O
io_out[14] O
io_out[15] O
io_out[16] O
io_out[17] O
io_out[18] O
io_out[19] O
io_out[1] O
io_out[20] O
io_out[21] O
io_out[22] O
io_out[23] O
io_out[24] O
io_out[25] O
io_out[26] O
io_out[27] O
io_out[28] O
io_out[29] O
io_out[2] O
io_out[30] O
io_out[31] O
io_out[32] O
io_out[33] O
io_out[34] O
io_out[35] O
io_out[36] O
io_out[37] O
io_out[3] O
io_out[4] O
io_out[5] O
io_out[6] O
io_out[7] O
io_out[8] O
io_out[9] O
la_data_in[0] I
la_data_in[10] I
la_data_in[11] I
la_data_in[12] I
la_data_in[13] I
la_data_in[14] I
la_data_in[15] I
la_data_in[16] I
la_data_in[17] I
la_data_in[18] I
la_data_in[19] I
la_data_in[1] I
la_data_in[20] I
la_data_in[21] I
la_data_in[22] I
la_data_in[23] I
la_data_in[24] I
la_data_in[25] I
la_data_in[26] I
la_data_in[27] I
la_data_in[28] I
la_data_in[29] I
la_data_in[2] I
la_data_in[30] I
la_data_in[31] I
la_data_in[32] I
la_data_in[33] I
la_data_in[34] I
la_data_in[35] I
la_data_in[36] I
la_data_in[37] I
la_data_in[38] I
la_data_in[39] I
la_data_in[3] I
la_data_in[40] I
la_data_in[41] I
la_data_in[42] I
la_data_in[43] I
la_data_in[44] I
la_data_in[45] I
la_data_in[46] I
la_data_in[47] I
la_data_in[48] I
la_data_in[49] I
la_data_in[4] I
la_data_in[50] I
la_data_in[51] I
la_data_in[52] I
la_data_in[53] I
la_data_in[54] I
la_data_in[55] I
la_data_in[56] I
la_data_in[57] I
la_data_in[58] I
la_data_in[59] I
la_data_in[5] I
la_data_in[60] I
la_data_in[61] I
la_data_in[62] I
la_data_in[63] I
la_data_in[6] I
la_data_in[7] I
la_data_in[8] I
la_data_in[9] I
la_data_out[0] O
la_data_out[10] O
la_data_out[11] O
la_data_out[12] O
la_data_out[13] O
la_data_out[14] O
la_data_out[15] O
la_data_out[16] O
la_data_out[17] O
la_data_out[18] O
la_data_out[19] O
la_data_out[1] O
la_data_out[20] O
la_data_out[21] O
la_data_out[22] O
la_data_out[23] O
la_data_out[24] O
la_data_out[25] O
la_data_out[26] O
la_data_out[27] O
la_data_out[28] O
la_data_out[29] O
la_data_out[2] O
la_data_out[30] O
la_data_out[31] O
la_data_out[32] O
la_data_out[33] O
la_data_out[34] O
la_data_out[35] O
la_data_out[36] O
la_data_out[37] O
la_data_out[38] O
la_data_out[39] O
la_data_out[3] O
la_data_out[40] O
la_data_out[41] O
la_data_out[42] O
la_data_out[43] O
la_data_out[44] O
la_data_out[45] O
la_data_out[46] O
la_data_out[47] O
la_data_out[48] O
la_data_out[49] O
la_data_out[4] O
la_data_out[50] O
la_data_out[51] O
la_data_out[52] O
la_data_out[53] O
la_data_out[54] O
la_data_out[55] O
la_data_out[56] O
la_data_out[57] O
la_data_out[58] O
la_data_out[59] O
la_data_out[5] O
la_data_out[60] O
la_data_out[61] O
la_data_out[62] O
la_data_out[63] O
la_data_out[6] O
la_data_out[7] O
la_data_out[8] O
la_data_out[9] O
la_oenb[0] I
la_oenb[10] I
la_oenb[11] I
la_oenb[12] I
la_oenb[13] I
la_oenb[14] I
la_oenb[15] I
la_oenb[16] I
la_oenb[17] I
la_oenb[18] I
la_oenb[19] I
la_oenb[1] I
la_oenb[20] I
la_oenb[21] I
la_oenb[22] I
la_oenb[23] I
la_oenb[24] I
la_oenb[25] I
la_oenb[26] I
la_oenb[27] I
la_oenb[28] I
la_oenb[29] I
la_oenb[2] I
la_oenb[30] I
la_oenb[31] I
la_oenb[32] I
la_oenb[33] I
la_oenb[34] I
la_oenb[35] I
la_oenb[36] I
la_oenb[37] I
la_oenb[38] I
la_oenb[39] I
la_oenb[3] I
la_oenb[40] I
la_oenb[41] I
la_oenb[42] I
la_oenb[43] I
la_oenb[44] I
la_oenb[45] I
la_oenb[46] I
la_oenb[47] I
la_oenb[48] I
la_oenb[49] I
la_oenb[4] I
la_oenb[50] I
la_oenb[51] I
la_oenb[52] I
la_oenb[53] I
la_oenb[54] I
la_oenb[55] I
la_oenb[56] I
la_oenb[57] I
la_oenb[58] I
la_oenb[59] I
la_oenb[5] I
la_oenb[60] I
la_oenb[61] I
la_oenb[62] I
la_oenb[63] I
la_oenb[6] I
la_oenb[7] I
la_oenb[8] I
la_oenb[9] I
user_clock2 I
user_irq[0] O
user_irq[1] O
user_irq[2] O
wb_clk_i I
wb_rst_i I
wbs_ack_o O
wbs_adr_i[0] I
wbs_adr_i[10] I
wbs_adr_i[11] I
wbs_adr_i[12] I
wbs_adr_i[13] I
wbs_adr_i[14] I
wbs_adr_i[15] I
wbs_adr_i[16] I
wbs_adr_i[17] I
wbs_adr_i[18] I
wbs_adr_i[19] I
wbs_adr_i[1] I
wbs_adr_i[20] I
wbs_adr_i[21] I
wbs_adr_i[22] I
wbs_adr_i[23] I
wbs_adr_i[24] I
wbs_adr_i[25] I
wbs_adr_i[26] I
wbs_adr_i[27] I
wbs_adr_i[28] I
wbs_adr_i[29] I
wbs_adr_i[2] I
wbs_adr_i[30] I
wbs_adr_i[31] I
wbs_adr_i[3] I
wbs_adr_i[4] I
wbs_adr_i[5] I
wbs_adr_i[6] I
wbs_adr_i[7] I
wbs_adr_i[8] I
wbs_adr_i[9] I
wbs_cyc_i I
wbs_dat_i[0] I
wbs_dat_i[10] I
wbs_dat_i[11] I
wbs_dat_i[12] I
wbs_dat_i[13] I
wbs_dat_i[14] I
wbs_dat_i[15] I
wbs_dat_i[16] I
wbs_dat_i[17] I
wbs_dat_i[18] I
wbs_dat_i[19] I
wbs_dat_i[1] I
wbs_dat_i[20] I
wbs_dat_i[21] I
wbs_dat_i[22] I
wbs_dat_i[23] I
wbs_dat_i[24] I
wbs_dat_i[25] I
wbs_dat_i[26] I
wbs_dat_i[27] I
wbs_dat_i[28] I
wbs_dat_i[29] I
wbs_dat_i[2] I
wbs_dat_i[30] I
wbs_dat_i[31] I
wbs_dat_i[3] I
wbs_dat_i[4] I
wbs_dat_i[5] I
wbs_dat_i[6] I
wbs_dat_i[7] I
wbs_dat_i[8] I
wbs_dat_i[9] I
wbs_dat_o[0] O
wbs_dat_o[10] O
wbs_dat_o[11] O
wbs_dat_o[12] O
wbs_dat_o[13] O
wbs_dat_o[14] O
wbs_dat_o[15] O
wbs_dat_o[16] O
wbs_dat_o[17] O
wbs_dat_o[18] O
wbs_dat_o[19] O
wbs_dat_o[1] O
wbs_dat_o[20] O
wbs_dat_o[21] O
wbs_dat_o[22] O
wbs_dat_o[23] O
wbs_dat_o[24] O
wbs_dat_o[25] O
wbs_dat_o[26] O
wbs_dat_o[27] O
wbs_dat_o[28] O
wbs_dat_o[29] O
wbs_dat_o[2] O
wbs_dat_o[30] O
wbs_dat_o[31] O
wbs_dat_o[3] O
wbs_dat_o[4] O
wbs_dat_o[5] O
wbs_dat_o[6] O
wbs_dat_o[7] O
wbs_dat_o[8] O
wbs_dat_o[9] O
wbs_sel_i[0] I
wbs_sel_i[1] I
wbs_sel_i[2] I
wbs_sel_i[3] I
wbs_stb_i I
wbs_we_i I

*D_NET *1 0.521396
*CONN
*P io_in[0] I
*I *419:io_in[0] I *D wrapped_as2650
*CAP
1 io_in[0] 0.00466579
2 *419:io_in[0] 0.00023556
3 *1:12 0.0486526
4 *1:11 0.0484171
5 *1:9 0.0692184
6 *1:7 0.0738841
7 *1:9 *314:8 0
8 *1:12 *77:8 0.276322
*RES
1 io_in[0] *1:7 37.305 
2 *1:7 *1:9 542.7 
3 *1:9 *1:11 4.5 
4 *1:11 *1:12 724.05 
5 *1:12 *419:io_in[0] 1.845 
*END

*D_NET *2 0.387224
*CONN
*P io_in[10] I
*I *419:io_in[10] I *D wrapped_as2650
*CAP
1 io_in[10] 0.000294117
2 *419:io_in[10] 0
3 *2:11 0.0212567
4 *2:10 0.0212567
5 *2:8 9.35479e-05
6 *2:7 0.000387665
7 *2:8 *38:8 0.0340385
8 *2:8 *39:12 0.0339701
9 *2:11 *419:io_in[37] 0.00829199
10 *2:11 *12:11 0
11 *2:11 *26:19 0.0673252
12 *2:11 *39:9 0.20031
*RES
1 io_in[10] *2:7 6.705 
2 *2:7 *2:8 86.67 
3 *2:8 *2:10 4.5 
4 *2:10 *2:11 499.77 
5 *2:11 *419:io_in[10] 4.5 
*END

*D_NET *3 0.246872
*CONN
*P io_in[11] I
*I *419:io_in[11] I *D wrapped_as2650
*CAP
1 io_in[11] 0.00282368
2 *419:io_in[11] 0.00114883
3 *3:11 0.038959
4 *3:10 0.0406338
5 *419:io_in[11] *41:9 0
6 *3:10 *12:8 0.00970356
7 *3:10 *50:13 0.000922934
8 *3:11 *29:19 0.0719057
9 *3:11 *73:8 0.00985047
10 *3:11 *104:8 0.0709242
*RES
1 io_in[11] *3:10 43.335 
2 *3:10 *3:11 490.23 
3 *3:11 *419:io_in[11] 11.385 
*END

*D_NET *4 0.140298
*CONN
*P io_in[12] I
*I *419:io_in[12] I *D wrapped_as2650
*CAP
1 io_in[12] 0.000167227
2 *419:io_in[12] 0.00606264
3 *4:21 0.00872753
4 *4:13 0.0621381
5 *4:11 0.0596405
6 *419:io_in[12] *79:13 0
7 *4:13 *6:11 0
8 *4:13 *82:16 0
9 *4:13 *90:10 0
10 *4:21 *6:11 0.000983246
11 *4:21 *45:11 9.15931e-05
12 *4:21 *82:16 0.00248676
13 *4:21 *106:10 0
*RES
1 io_in[12] *4:11 2.115 
2 *4:11 *4:13 462.51 
3 *4:13 *4:21 39.78 
4 *4:21 *419:io_in[12] 38.835 
*END

*D_NET *5 0.20009
*CONN
*P io_in[13] I
*I *419:io_in[13] I *D wrapped_as2650
*CAP
1 io_in[13] 0.000470965
2 *419:io_in[13] 0.00555666
3 *5:11 0.0596418
4 *5:10 0.0540852
5 *5:8 0.00451706
6 *5:7 0.00498803
7 *419:io_in[13] *42:11 0
8 *5:8 *43:11 0.0271327
9 *5:11 *48:8 0.000285558
10 *5:11 *80:10 0.0434115
11 *5:11 *103:14 0
12 *5:11 *106:10 0
*RES
1 io_in[13] *5:7 8.325 
2 *5:7 *5:8 69.03 
3 *5:8 *5:10 4.5 
4 *5:10 *5:11 475.65 
5 *5:11 *419:io_in[13] 39.825 
*END

*D_NET *6 0.208597
*CONN
*P io_in[14] I
*I *419:io_in[14] I *D wrapped_as2650
*CAP
1 io_in[14] 0.000648266
2 *419:io_in[14] 0.00623094
3 *6:11 0.0636229
4 *6:10 0.0573919
5 *6:8 0.00986576
6 *6:7 0.010514
7 *419:io_in[14] *44:13 0
8 *419:io_in[14] *81:9 0
9 *6:8 *43:11 0.0427711
10 *6:11 *82:16 0.0165689
11 *6:11 *106:10 0
12 *4:13 *6:11 0
13 *4:21 *6:11 0.000983246
*RES
1 io_in[14] *6:7 8.685 
2 *6:7 *6:8 130.05 
3 *6:8 *6:10 4.5 
4 *6:10 *6:11 469.71 
5 *6:11 *419:io_in[14] 44.595 
*END

*D_NET *7 0.175749
*CONN
*P io_in[15] I
*I *419:io_in[15] I *D wrapped_as2650
*CAP
1 io_in[15] 0.0217662
2 *419:io_in[15] 0.00257858
3 *7:13 0.00843007
4 *7:8 0.0635297
5 *7:7 0.0576782
6 *7:5 0.0217662
*RES
1 io_in[15] *7:5 167.625 
2 *7:5 *7:7 4.5 
3 *7:7 *7:8 448.29 
4 *7:8 *7:13 44.37 
5 *7:13 *419:io_in[15] 16.065 
*END

*D_NET *8 0.14637
*CONN
*P io_in[16] I
*I *419:io_in[16] I *D wrapped_as2650
*CAP
1 io_in[16] 0.000247817
2 *419:io_in[16] 0.000166616
3 *8:19 0.00872172
4 *8:18 0.00855511
5 *8:16 0.0427564
6 *8:15 0.0427564
7 *8:13 0.0214591
8 *8:11 0.021707
9 *8:19 *83:10 0
10 *8:19 *83:11 0
*RES
1 io_in[16] *8:11 2.655 
2 *8:11 *8:13 164.97 
3 *8:13 *8:15 4.5 
4 *8:15 *8:16 332.19 
5 *8:16 *8:18 4.5 
6 *8:18 *8:19 56.61 
7 *8:19 *419:io_in[16] 1.305 
*END

*D_NET *9 0.116826
*CONN
*P io_in[17] I
*I *419:io_in[17] I *D wrapped_as2650
*CAP
1 io_in[17] 0.0013584
2 *419:io_in[17] 9.76714e-05
3 *9:17 0.00974615
4 *9:16 0.00964848
5 *9:14 0.0279339
6 *9:13 0.0279339
7 *9:11 0.0192836
8 *9:10 0.020642
9 *9:10 *46:14 0.000181847
10 *9:17 *46:11 0
*RES
1 io_in[17] *9:10 19.935 
2 *9:10 *9:11 148.05 
3 *9:11 *9:13 4.5 
4 *9:13 *9:14 217.35 
5 *9:14 *9:16 4.5 
6 *9:16 *9:17 64.71 
7 *9:17 *419:io_in[17] 0.765 
*END

*D_NET *10 0.0877281
*CONN
*P io_in[18] I
*I *419:io_in[18] I *D wrapped_as2650
*CAP
1 io_in[18] 0.00143099
2 *419:io_in[18] 0.00243938
3 *10:17 0.0238086
4 *10:16 0.0213692
5 *10:14 0.0130518
6 *10:13 0.0185751
7 *10:10 0.00695436
8 *10:10 *46:14 9.85843e-05
*RES
1 io_in[18] *10:10 19.755 
2 *10:10 *10:13 46.35 
3 *10:13 *10:14 101.25 
4 *10:14 *10:16 4.5 
5 *10:16 *10:17 158.04 
6 *10:17 *419:io_in[18] 14.985 
*END

*D_NET *11 0.0628487
*CONN
*P io_in[19] I
*I *419:io_in[19] I *D wrapped_as2650
*CAP
1 io_in[19] 0.00214637
2 *419:io_in[19] 0.00270529
3 *11:11 0.029278
4 *11:10 0.0287191
5 *11:10 *16:8 0
6 *11:11 *86:9 0
*RES
1 io_in[19] *11:10 25.695 
2 *11:10 *11:11 197.1 
3 *11:11 *419:io_in[19] 17.055 
*END

*D_NET *12 0.684279
*CONN
*P io_in[1] I
*I *419:io_in[1] I *D wrapped_as2650
*CAP
1 io_in[1] 0.000509679
2 *419:io_in[1] 0.000217557
3 *12:11 0.0261494
4 *12:10 0.0259319
5 *12:8 0.0443372
6 *12:7 0.0448469
7 *419:io_in[1] *50:9 0
8 *12:8 *50:13 0.243485
9 *12:11 *419:io_in[37] 0
10 *12:11 *20:13 0.0788457
11 *12:11 *24:19 0.00410638
12 *12:11 *26:19 0
13 *12:11 *36:19 0.00127731
14 *12:11 *38:11 0.20195
15 *12:11 *69:10 0.00197903
16 *12:11 *75:8 0.000938434
17 *2:11 *12:11 0
18 *3:10 *12:8 0.00970356
*RES
1 io_in[1] *12:7 8.505 
2 *12:7 *12:8 661.95 
3 *12:8 *12:10 4.5 
4 *12:10 *12:11 566.01 
5 *12:11 *419:io_in[1] 5.985 
*END

*D_NET *13 0.104946
*CONN
*P io_in[20] I
*I *419:io_in[20] I *D wrapped_as2650
*CAP
1 io_in[20] 0.0010289
2 *419:io_in[20] 0.0025626
3 *13:19 0.00680348
4 *13:11 0.0282137
5 *13:10 0.0239728
6 *13:8 0.0073508
7 *13:7 0.0083797
8 *13:8 *16:8 0.0185286
9 *13:8 *46:14 0.00111452
10 *13:11 *47:9 0
11 *13:11 *85:7 0
12 *13:19 *44:14 0.00665227
13 *13:19 *103:14 0.000338998
*RES
1 io_in[20] *13:7 12.465 
2 *13:7 *13:8 103.59 
3 *13:8 *13:10 4.5 
4 *13:10 *13:11 180.99 
5 *13:11 *13:19 45.36 
6 *13:19 *419:io_in[20] 16.065 
*END

*D_NET *14 0.121111
*CONN
*P io_in[21] I
*I *419:io_in[21] I *D wrapped_as2650
*CAP
1 io_in[21] 0.00133604
2 *419:io_in[21] 0.000166616
3 *14:17 0.0246142
4 *14:16 0.0244476
5 *14:14 0.0299525
6 *14:13 0.0344781
7 *14:10 0.00586157
8 *14:10 *16:8 0.000254726
*RES
1 io_in[21] *14:10 19.935 
2 *14:10 *14:13 39.15 
3 *14:13 *14:14 233.73 
4 *14:14 *14:16 4.5 
5 *14:16 *14:17 178.11 
6 *14:17 *419:io_in[21] 1.305 
*END

*D_NET *15 0.15049
*CONN
*P io_in[22] I
*I *419:io_in[22] I *D wrapped_as2650
*CAP
1 io_in[22] 0.00485065
2 *419:io_in[22] 9.76714e-05
3 *15:15 0.0104002
4 *15:14 0.0103026
5 *15:12 0.0450609
6 *15:11 0.0450609
7 *15:9 0.0149334
8 *15:7 0.0197841
9 *15:12 *19:9 0
10 *15:15 *16:11 0
*RES
1 io_in[22] *15:7 37.305 
2 *15:7 *15:9 114.84 
3 *15:9 *15:11 4.5 
4 *15:11 *15:12 351.09 
5 *15:12 *15:14 4.5 
6 *15:14 *15:15 70.11 
7 *15:15 *419:io_in[22] 0.765 
*END

*D_NET *16 0.201476
*CONN
*P io_in[23] I
*I *419:io_in[23] I *D wrapped_as2650
*CAP
1 io_in[23] 0.00107486
2 *419:io_in[23] 0.00132497
3 *16:11 0.0290849
4 *16:10 0.02776
5 *16:8 0.0500809
6 *16:7 0.0511558
7 *419:io_in[23] *419:io_in[24] 0.00392675
8 *419:io_in[23] *22:19 0.00393445
9 *16:8 io_out[21] 0.000283548
10 *16:8 *46:14 0.0140664
11 *16:11 *90:9 0
12 *11:10 *16:8 0
13 *13:8 *16:8 0.0185286
14 *14:10 *16:8 0.000254726
15 *15:15 *16:11 0
*RES
1 io_in[23] *16:7 12.825 
2 *16:7 *16:8 455.13 
3 *16:8 *16:10 4.5 
4 *16:10 *16:11 205.47 
5 *16:11 *419:io_in[23] 26.595 
*END

*D_NET *17 0.236589
*CONN
*P io_in[24] I
*I *419:io_in[24] I *D wrapped_as2650
*CAP
1 io_in[24] 0.000201168
2 *419:io_in[24] 0.00294853
3 *17:16 0.0298101
4 *17:15 0.0268616
5 *17:13 0.08543
6 *17:11 0.0856312
7 *419:io_in[24] *22:19 0.00177934
8 *419:io_in[24] *55:9 0
9 *419:io_in[24] *59:8 0
10 *17:13 *83:14 0
11 *17:16 *90:9 0
12 *419:io_in[23] *419:io_in[24] 0.00392675
*RES
1 io_in[24] *17:11 1.935 
2 *17:11 *17:13 540.81 
3 *17:13 *17:15 4.5 
4 *17:15 *17:16 198.63 
5 *17:16 *419:io_in[24] 37.035 
*END

*D_NET *18 0.184646
*CONN
*P io_in[25] I
*I *419:io_in[25] I *D wrapped_as2650
*CAP
1 io_in[25] 0.00117627
2 *419:io_in[25] 0.00251467
3 *18:16 0.00791976
4 *18:11 0.0770726
5 *18:10 0.0716676
6 *18:8 0.0115594
7 *18:7 0.0127357
*RES
1 io_in[25] *18:7 13.365 
2 *18:7 *18:8 88.65 
3 *18:8 *18:10 4.5 
4 *18:10 *18:11 557.73 
5 *18:11 *18:16 41.67 
6 *18:16 *419:io_in[25] 16.065 
*END

*D_NET *19 0.168681
*CONN
*P io_in[26] I
*I *419:io_in[26] I *D wrapped_as2650
*CAP
1 io_in[26] 0.00179421
2 *419:io_in[26] 0.000166616
3 *19:12 0.0105412
4 *19:11 0.0103746
5 *19:9 0.0720048
6 *19:7 0.073799
7 *15:12 *19:9 0
*RES
1 io_in[26] *19:7 13.185 
2 *19:7 *19:9 561.78 
3 *19:9 *19:11 4.5 
4 *19:11 *19:12 71.55 
5 *19:12 *419:io_in[26] 1.305 
*END

*D_NET *20 0.203424
*CONN
*P io_in[27] I
*I *419:io_in[27] I *D wrapped_as2650
*CAP
1 io_in[27] 0.00035683
2 *419:io_in[27] 0.000178599
3 *20:13 0.0613227
4 *20:11 0.0615009
5 *20:13 *24:19 0.00121906
6 *20:13 *26:19 0
7 *12:11 *20:13 0.0788457
*RES
1 io_in[27] *20:11 3.015 
2 *20:11 *20:13 583.47 
3 *20:13 *419:io_in[27] 5.805 
*END

*D_NET *21 0.225495
*CONN
*P io_in[28] I
*I *419:io_in[28] I *D wrapped_as2650
*CAP
1 io_in[28] 0.0014284
2 *419:io_in[28] 0
3 *21:11 0.059699
4 *21:10 0.059699
5 *21:8 0.00826734
6 *21:7 0.00969574
7 *21:11 *26:19 0.00153698
8 *21:11 *39:7 0.00123367
9 *21:11 *39:9 0.0810632
10 *21:11 *77:7 0.00287179
*RES
1 io_in[28] *21:7 13.365 
2 *21:7 *21:8 63.45 
3 *21:8 *21:10 4.5 
4 *21:10 *21:11 582.21 
5 *21:11 *419:io_in[28] 4.5 
*END

*D_NET *22 0.259614
*CONN
*P io_in[29] I
*I *419:io_in[29] I *D wrapped_as2650
*CAP
1 io_in[29] 0.000177869
2 *419:io_in[29] 0.00120881
3 *22:19 0.0156534
4 *22:18 0.0144446
5 *22:16 0.0185097
6 *22:15 0.0185097
7 *22:13 0.0479542
8 *22:11 0.048132
9 *419:io_in[29] *60:13 0
10 *22:19 *25:15 0.0893094
11 *22:19 *46:10 0
12 *22:19 *59:8 0
13 *419:io_in[23] *22:19 0.00393445
14 *419:io_in[24] *22:19 0.00177934
*RES
1 io_in[29] *22:11 1.935 
2 *22:11 *22:13 373.41 
3 *22:13 *22:15 4.5 
4 *22:15 *22:16 141.39 
5 *22:16 *22:18 4.5 
6 *22:18 *22:19 225.27 
7 *22:19 *419:io_in[29] 12.105 
*END

*D_NET *23 0.820922
*CONN
*P io_in[2] I
*I *419:io_in[2] I *D wrapped_as2650
*CAP
1 io_in[2] 0.000466564
2 *419:io_in[2] 0.00146724
3 *23:11 0.0266004
4 *23:10 0.0251332
5 *23:8 0.00313069
6 *23:7 0.00359725
7 *23:8 *39:12 0
8 *23:8 *50:13 0.238304
9 *23:8 *61:11 0.221601
10 *23:11 *58:8 0.000228132
11 *23:11 *59:8 0.0789373
12 *23:11 *61:8 0.221456
*RES
1 io_in[2] *23:7 8.145 
2 *23:7 *23:8 606.33 
3 *23:8 *23:10 4.5 
4 *23:10 *23:11 558.81 
5 *23:11 *419:io_in[2] 14.085 
*END

*D_NET *24 0.257397
*CONN
*P io_in[30] I
*I *419:io_in[30] I *D wrapped_as2650
*CAP
1 io_in[30] 0.000113196
2 *419:io_in[30] 0.000357413
3 *24:19 0.0170432
4 *24:18 0.0166858
5 *24:16 0.0264122
6 *24:15 0.0264122
7 *24:13 0.0475703
8 *24:11 0.0476835
9 *419:io_in[30] *62:13 0
10 *24:19 *36:19 0.069794
11 *24:19 *114:8 0
12 *12:11 *24:19 0.00410638
13 *20:13 *24:19 0.00121906
*RES
1 io_in[30] *24:11 1.395 
2 *24:11 *24:13 370.71 
3 *24:13 *24:15 4.5 
4 *24:15 *24:16 203.49 
5 *24:16 *24:18 4.5 
6 *24:18 *24:19 235.53 
7 *24:19 *419:io_in[30] 6.705 
*END

*D_NET *25 0.348809
*CONN
*P io_in[31] I
*I *419:io_in[31] I *D wrapped_as2650
*CAP
1 io_in[31] 0.00177706
2 *419:io_in[31] 0.00114128
3 *25:15 0.00416648
4 *25:14 0.0030252
5 *25:12 0.0359685
6 *25:11 0.0359685
7 *25:9 0.0454587
8 *25:7 0.0472357
9 *419:io_in[31] *63:9 0
10 *25:15 *29:19 0.0107908
11 *25:15 *73:8 0.0739674
12 *22:19 *25:15 0.0893094
*RES
1 io_in[31] *25:7 13.185 
2 *25:7 *25:9 355.14 
3 *25:9 *25:11 4.5 
4 *25:11 *25:12 276.21 
5 *25:12 *25:14 4.5 
6 *25:14 *25:15 245.79 
7 *25:15 *419:io_in[31] 11.925 
*END

*D_NET *26 0.306637
*CONN
*P io_in[32] I
*I *419:io_in[32] I *D wrapped_as2650
*CAP
1 io_in[32] 0.000323383
2 *419:io_in[32] 0
3 *26:19 0.0194513
4 *26:18 0.0194513
5 *26:16 0.0439126
6 *26:15 0.0439126
7 *26:13 0.0468339
8 *26:11 0.0471573
9 *26:19 *39:7 0.00371783
10 *26:19 *39:9 0.0121654
11 *26:19 *77:7 0.00084881
12 *2:11 *26:19 0.0673252
13 *12:11 *26:19 0
14 *20:13 *26:19 0
15 *21:11 *26:19 0.00153698
*RES
1 io_in[32] *26:11 3.015 
2 *26:11 *26:13 365.31 
3 *26:13 *26:15 4.5 
4 *26:15 *26:16 338.85 
5 *26:16 *26:18 4.5 
6 *26:18 *26:19 256.05 
7 *26:19 *419:io_in[32] 4.5 
*END

*D_NET *27 0.342021
*CONN
*P io_in[33] I
*I *419:io_in[33] I *D wrapped_as2650
*CAP
1 io_in[33] 0.000242542
2 *419:io_in[33] 0.00196549
3 *27:19 0.0203449
4 *27:18 0.0183794
5 *27:16 0.0545813
6 *27:15 0.0545813
7 *27:13 0.0464591
8 *27:11 0.0467016
9 *27:19 *37:11 0
10 *27:19 *66:8 0.00600529
11 *27:19 *97:8 0.0927598
*RES
1 io_in[33] *27:11 2.475 
2 *27:11 *27:13 362.61 
3 *27:13 *27:15 4.5 
4 *27:15 *27:16 419.49 
5 *27:16 *27:18 4.5 
6 *27:18 *27:19 266.31 
7 *27:19 *419:io_in[33] 17.505 
*END

*D_NET *28 0.418797
*CONN
*P io_in[34] I
*I *419:io_in[34] I *D wrapped_as2650
*CAP
1 io_in[34] 0.000177869
2 *419:io_in[34] 0.00253893
3 *28:19 0.00941149
4 *28:18 0.00687256
5 *28:16 0.0635882
6 *28:15 0.0635882
7 *28:13 0.04608
8 *28:11 0.0462579
9 *419:io_in[34] *103:13 0
10 *28:19 *37:11 0.0770334
11 *28:19 *62:14 0.0983058
12 *28:19 *76:14 0.00494296
*RES
1 io_in[34] *28:11 1.935 
2 *28:11 *28:13 359.91 
3 *28:13 *28:15 4.5 
4 *28:15 *28:16 488.97 
5 *28:16 *28:18 4.5 
6 *28:18 *28:19 274.41 
7 *28:19 *419:io_in[34] 21.915 
*END

*D_NET *29 0.430857
*CONN
*P io_in[35] I
*I *419:io_in[35] I *D wrapped_as2650
*CAP
1 io_in[35] 0.000113196
2 *419:io_in[35] 0.00104739
3 *29:19 0.00494986
4 *29:18 0.00390247
5 *29:16 0.0712294
6 *29:15 0.0712294
7 *29:13 0.0444888
8 *29:11 0.044602
9 *29:19 *73:8 0.0859611
10 *29:19 *104:8 0.0206373
11 *3:11 *29:19 0.0719057
12 *25:15 *29:19 0.0107908
*RES
1 io_in[35] *29:11 1.395 
2 *29:11 *29:13 349.11 
3 *29:13 *29:15 4.5 
4 *29:15 *29:16 548.55 
5 *29:16 *29:18 4.5 
6 *29:18 *29:19 294.93 
7 *29:19 *419:io_in[35] 11.565 
*END

*D_NET *30 0.3399
*CONN
*P io_in[36] I
*I *419:io_in[36] I *D wrapped_as2650
*CAP
1 io_in[36] 0.00177706
2 *419:io_in[36] 0.00133275
3 *30:12 0.0800702
4 *30:11 0.0787374
5 *30:9 0.0840154
6 *30:7 0.0857925
7 *419:io_in[36] *39:9 0.00817492
8 *30:12 *74:13 0
*RES
1 io_in[36] *30:7 13.185 
2 *30:7 *30:9 658.98 
3 *30:9 *30:11 4.5 
4 *30:11 *30:12 608.31 
5 *30:12 *419:io_in[36] 29.43 
*END

*D_NET *31 0.361552
*CONN
*P io_in[37] I
*I *419:io_in[37] I *D wrapped_as2650
*CAP
1 io_in[37] 0.000323383
2 *419:io_in[37] 0.00150371
3 *31:16 0.0894694
4 *31:15 0.0879656
5 *31:13 0.0868371
6 *31:11 0.0871605
7 *419:io_in[37] *69:10 0
8 *31:16 *36:16 0
9 *2:11 *419:io_in[37] 0.00829199
10 *12:11 *419:io_in[37] 0
*RES
1 io_in[37] *31:11 3.015 
2 *31:11 *31:13 679.95 
3 *31:13 *31:15 4.5 
4 *31:15 *31:16 679.05 
5 *31:16 *419:io_in[37] 29.97 
*END

*D_NET *32 0.708919
*CONN
*P io_in[3] I
*I *419:io_in[3] I *D wrapped_as2650
*CAP
1 io_in[3] 0.000423448
2 *419:io_in[3] 0.00269558
3 *32:11 0.0388077
4 *32:10 0.0361121
5 *32:8 0.00480089
6 *32:7 0.00522434
7 *32:8 *33:8 0.189168
8 *32:8 *35:8 0.00064284
9 *32:8 *39:12 0
10 *32:8 *50:13 0.000898924
11 *32:8 *61:11 0.213309
12 *32:11 io_oeb[11] 0
13 *32:11 *60:14 0.00100139
14 *32:11 *65:14 0.0912565
15 *32:11 *71:14 0.00495925
16 *32:11 *112:10 0.11962
*RES
1 io_in[3] *32:7 7.785 
2 *32:7 *32:8 550.71 
3 *32:8 *32:10 4.5 
4 *32:10 *32:11 551.79 
5 *32:11 *419:io_in[3] 22.545 
*END

*D_NET *33 0.58151
*CONN
*P io_in[4] I
*I *419:io_in[4] I *D wrapped_as2650
*CAP
1 io_in[4] 0.000496768
2 *419:io_in[4] 0.00206914
3 *33:11 0.0407991
4 *33:10 0.03873
5 *33:8 0.00364166
6 *33:7 0.00413843
7 *419:io_in[4] *71:13 0
8 *33:8 *34:8 0.163283
9 *33:8 *35:8 0.00037553
10 *33:8 *39:12 0.0018203
11 *33:11 *58:8 0
12 *33:11 *79:14 0.06603
13 *33:11 *96:8 0.0709589
14 *32:8 *33:8 0.189168
*RES
1 io_in[4] *33:7 7.605 
2 *33:7 *33:8 481.41 
3 *33:8 *33:10 4.5 
4 *33:10 *33:11 544.23 
5 *33:11 *419:io_in[4] 16.605 
*END

*D_NET *34 0.672229
*CONN
*P io_in[5] I
*I *419:io_in[5] I *D wrapped_as2650
*CAP
1 io_in[5] 0.000380333
2 *419:io_in[5] 0.00154515
3 *34:11 0.019235
4 *34:10 0.0176899
5 *34:8 0.00260575
6 *34:7 0.00298608
7 *419:io_in[5] *72:13 0
8 *34:8 *35:8 0.138245
9 *34:8 *39:12 0.00410198
10 *34:11 *58:8 0.00788043
11 *34:11 *61:8 0.213584
12 *34:11 *78:8 0.100692
13 *33:8 *34:8 0.163283
*RES
1 io_in[5] *34:7 7.425 
2 *34:7 *34:8 415.53 
3 *34:8 *34:10 4.5 
4 *34:10 *34:11 536.85 