*SPEF "ieee 1481-1999"
*DESIGN "user_project_wrapper"
*DATE "11:11:11 Fri 11 11, 1111"
*VENDOR "OpenRCX"
*PROGRAM "Parallel Extraction"
*VERSION "1.0"
*DESIGN_FLOW "NAME_SCOPE LOCAL" "PIN_CAP NONE"
*DIVIDER /
*DELIMITER :
*BUS_DELIMITER []
*T_UNIT 1 NS
*C_UNIT 1 PF
*R_UNIT 1 OHM
*L_UNIT 1 HENRY

*NAME_MAP
*1 io_in[0]
*2 io_in[10]
*3 io_in[11]
*4 io_in[12]
*5 io_in[13]
*6 io_in[14]
*7 io_in[15]
*8 io_in[16]
*9 io_in[17]
*10 io_in[18]
*11 io_in[19]
*12 io_in[1]
*13 io_in[20]
*14 io_in[21]
*15 io_in[22]
*16 io_in[23]
*17 io_in[24]
*18 io_in[25]
*19 io_in[26]
*20 io_in[27]
*21 io_in[28]
*22 io_in[29]
*23 io_in[2]
*24 io_in[30]
*25 io_in[31]
*26 io_in[32]
*27 io_in[33]
*28 io_in[34]
*29 io_in[35]
*30 io_in[36]
*31 io_in[37]
*32 io_in[3]
*33 io_in[4]
*34 io_in[5]
*35 io_in[6]
*36 io_in[7]
*37 io_in[8]
*38 io_in[9]
*39 io_oeb[0]
*40 io_oeb[10]
*41 io_oeb[11]
*42 io_oeb[12]
*43 io_oeb[13]
*44 io_oeb[14]
*45 io_oeb[15]
*46 io_oeb[16]
*47 io_oeb[17]
*48 io_oeb[18]
*49 io_oeb[19]
*50 io_oeb[1]
*51 io_oeb[20]
*52 io_oeb[21]
*53 io_oeb[22]
*54 io_oeb[23]
*55 io_oeb[24]
*56 io_oeb[25]
*57 io_oeb[26]
*58 io_oeb[27]
*59 io_oeb[28]
*60 io_oeb[29]
*61 io_oeb[2]
*62 io_oeb[30]
*63 io_oeb[31]
*64 io_oeb[32]
*65 io_oeb[33]
*66 io_oeb[34]
*67 io_oeb[35]
*68 io_oeb[36]
*69 io_oeb[37]
*70 io_oeb[3]
*71 io_oeb[4]
*72 io_oeb[5]
*73 io_oeb[6]
*74 io_oeb[7]
*75 io_oeb[8]
*76 io_oeb[9]
*77 io_out[0]
*78 io_out[10]
*79 io_out[11]
*80 io_out[12]
*81 io_out[13]
*82 io_out[14]
*83 io_out[15]
*84 io_out[16]
*85 io_out[17]
*86 io_out[18]
*87 io_out[19]
*88 io_out[1]
*89 io_out[20]
*90 io_out[21]
*91 io_out[22]
*92 io_out[23]
*93 io_out[24]
*94 io_out[25]
*95 io_out[26]
*96 io_out[27]
*97 io_out[28]
*98 io_out[29]
*99 io_out[2]
*100 io_out[30]
*101 io_out[31]
*102 io_out[32]
*103 io_out[33]
*104 io_out[34]
*105 io_out[35]
*106 io_out[36]
*107 io_out[37]
*108 io_out[3]
*109 io_out[4]
*110 io_out[5]
*111 io_out[6]
*112 io_out[7]
*113 io_out[8]
*114 io_out[9]
*115 la_data_in[0]
*116 la_data_in[10]
*117 la_data_in[11]
*118 la_data_in[12]
*119 la_data_in[13]
*120 la_data_in[14]
*121 la_data_in[15]
*122 la_data_in[16]
*123 la_data_in[17]
*124 la_data_in[18]
*125 la_data_in[19]
*126 la_data_in[1]
*127 la_data_in[20]
*128 la_data_in[21]
*129 la_data_in[22]
*130 la_data_in[23]
*131 la_data_in[24]
*132 la_data_in[25]
*133 la_data_in[26]
*134 la_data_in[27]
*135 la_data_in[28]
*136 la_data_in[29]
*137 la_data_in[2]
*138 la_data_in[30]
*139 la_data_in[31]
*140 la_data_in[32]
*141 la_data_in[33]
*142 la_data_in[34]
*143 la_data_in[35]
*144 la_data_in[36]
*145 la_data_in[37]
*146 la_data_in[38]
*147 la_data_in[39]
*148 la_data_in[3]
*149 la_data_in[40]
*150 la_data_in[41]
*151 la_data_in[42]
*152 la_data_in[43]
*153 la_data_in[44]
*154 la_data_in[45]
*155 la_data_in[46]
*156 la_data_in[47]
*157 la_data_in[48]
*158 la_data_in[49]
*159 la_data_in[4]
*160 la_data_in[50]
*161 la_data_in[51]
*162 la_data_in[52]
*163 la_data_in[53]
*164 la_data_in[54]
*165 la_data_in[55]
*166 la_data_in[56]
*167 la_data_in[57]
*168 la_data_in[58]
*169 la_data_in[59]
*170 la_data_in[5]
*171 la_data_in[60]
*172 la_data_in[61]
*173 la_data_in[62]
*174 la_data_in[63]
*175 la_data_in[6]
*176 la_data_in[7]
*177 la_data_in[8]
*178 la_data_in[9]
*179 la_data_out[0]
*180 la_data_out[10]
*181 la_data_out[11]
*182 la_data_out[12]
*183 la_data_out[13]
*184 la_data_out[14]
*185 la_data_out[15]
*186 la_data_out[16]
*187 la_data_out[17]
*188 la_data_out[18]
*189 la_data_out[19]
*190 la_data_out[1]
*191 la_data_out[20]
*192 la_data_out[21]
*193 la_data_out[22]
*194 la_data_out[23]
*195 la_data_out[24]
*196 la_data_out[25]
*197 la_data_out[26]
*198 la_data_out[27]
*199 la_data_out[28]
*200 la_data_out[29]
*201 la_data_out[2]
*202 la_data_out[30]
*203 la_data_out[31]
*204 la_data_out[32]
*205 la_data_out[33]
*206 la_data_out[34]
*207 la_data_out[35]
*208 la_data_out[36]
*209 la_data_out[37]
*210 la_data_out[38]
*211 la_data_out[39]
*212 la_data_out[3]
*213 la_data_out[40]
*214 la_data_out[41]
*215 la_data_out[42]
*216 la_data_out[43]
*217 la_data_out[44]
*218 la_data_out[45]
*219 la_data_out[46]
*220 la_data_out[47]
*221 la_data_out[48]
*222 la_data_out[49]
*223 la_data_out[4]
*224 la_data_out[50]
*225 la_data_out[51]
*226 la_data_out[52]
*227 la_data_out[53]
*228 la_data_out[54]
*229 la_data_out[55]
*230 la_data_out[56]
*231 la_data_out[57]
*232 la_data_out[58]
*233 la_data_out[59]
*234 la_data_out[5]
*235 la_data_out[60]
*236 la_data_out[61]
*237 la_data_out[62]
*238 la_data_out[63]
*239 la_data_out[6]
*240 la_data_out[7]
*241 la_data_out[8]
*242 la_data_out[9]
*243 la_oenb[0]
*244 la_oenb[10]
*245 la_oenb[11]
*246 la_oenb[12]
*247 la_oenb[13]
*248 la_oenb[14]
*249 la_oenb[15]
*250 la_oenb[16]
*251 la_oenb[17]
*252 la_oenb[18]
*253 la_oenb[19]
*254 la_oenb[1]
*255 la_oenb[20]
*256 la_oenb[21]
*257 la_oenb[22]
*258 la_oenb[23]
*259 la_oenb[24]
*260 la_oenb[25]
*261 la_oenb[26]
*262 la_oenb[27]
*263 la_oenb[28]
*264 la_oenb[29]
*265 la_oenb[2]
*266 la_oenb[30]
*267 la_oenb[31]
*268 la_oenb[32]
*269 la_oenb[33]
*270 la_oenb[34]
*271 la_oenb[35]
*272 la_oenb[36]
*273 la_oenb[37]
*274 la_oenb[38]
*275 la_oenb[39]
*276 la_oenb[3]
*277 la_oenb[40]
*278 la_oenb[41]
*279 la_oenb[42]
*280 la_oenb[43]
*281 la_oenb[44]
*282 la_oenb[45]
*283 la_oenb[46]
*284 la_oenb[47]
*285 la_oenb[48]
*286 la_oenb[49]
*287 la_oenb[4]
*288 la_oenb[50]
*289 la_oenb[51]
*290 la_oenb[52]
*291 la_oenb[53]
*292 la_oenb[54]
*293 la_oenb[55]
*294 la_oenb[56]
*295 la_oenb[57]
*296 la_oenb[58]
*297 la_oenb[59]
*298 la_oenb[5]
*299 la_oenb[60]
*300 la_oenb[61]
*301 la_oenb[62]
*302 la_oenb[63]
*303 la_oenb[6]
*304 la_oenb[7]
*305 la_oenb[8]
*306 la_oenb[9]
*307 user_clock2
*308 user_irq[0]
*309 user_irq[1]
*310 user_irq[2]
*313 wb_clk_i
*314 wb_rst_i
*315 wbs_ack_o
*316 wbs_adr_i[0]
*317 wbs_adr_i[10]
*318 wbs_adr_i[11]
*319 wbs_adr_i[12]
*320 wbs_adr_i[13]
*321 wbs_adr_i[14]
*322 wbs_adr_i[15]
*323 wbs_adr_i[16]
*324 wbs_adr_i[17]
*325 wbs_adr_i[18]
*326 wbs_adr_i[19]
*327 wbs_adr_i[1]
*328 wbs_adr_i[20]
*329 wbs_adr_i[21]
*330 wbs_adr_i[22]
*331 wbs_adr_i[23]
*332 wbs_adr_i[24]
*333 wbs_adr_i[25]
*334 wbs_adr_i[26]
*335 wbs_adr_i[27]
*336 wbs_adr_i[28]
*337 wbs_adr_i[29]
*338 wbs_adr_i[2]
*339 wbs_adr_i[30]
*340 wbs_adr_i[31]
*341 wbs_adr_i[3]
*342 wbs_adr_i[4]
*343 wbs_adr_i[5]
*344 wbs_adr_i[6]
*345 wbs_adr_i[7]
*346 wbs_adr_i[8]
*347 wbs_adr_i[9]
*348 wbs_cyc_i
*349 wbs_dat_i[0]
*350 wbs_dat_i[10]
*351 wbs_dat_i[11]
*352 wbs_dat_i[12]
*353 wbs_dat_i[13]
*354 wbs_dat_i[14]
*355 wbs_dat_i[15]
*356 wbs_dat_i[16]
*357 wbs_dat_i[17]
*358 wbs_dat_i[18]
*359 wbs_dat_i[19]
*360 wbs_dat_i[1]
*361 wbs_dat_i[20]
*362 wbs_dat_i[21]
*363 wbs_dat_i[22]
*364 wbs_dat_i[23]
*365 wbs_dat_i[24]
*366 wbs_dat_i[25]
*367 wbs_dat_i[26]
*368 wbs_dat_i[27]
*369 wbs_dat_i[28]
*370 wbs_dat_i[29]
*371 wbs_dat_i[2]
*372 wbs_dat_i[30]
*373 wbs_dat_i[31]
*374 wbs_dat_i[3]
*375 wbs_dat_i[4]
*376 wbs_dat_i[5]
*377 wbs_dat_i[6]
*378 wbs_dat_i[7]
*379 wbs_dat_i[8]
*380 wbs_dat_i[9]
*381 wbs_dat_o[0]
*382 wbs_dat_o[10]
*383 wbs_dat_o[11]
*384 wbs_dat_o[12]
*385 wbs_dat_o[13]
*386 wbs_dat_o[14]
*387 wbs_dat_o[15]
*388 wbs_dat_o[16]
*389 wbs_dat_o[17]
*390 wbs_dat_o[18]
*391 wbs_dat_o[19]
*392 wbs_dat_o[1]
*393 wbs_dat_o[20]
*394 wbs_dat_o[21]
*395 wbs_dat_o[22]
*396 wbs_dat_o[23]
*397 wbs_dat_o[24]
*398 wbs_dat_o[25]
*399 wbs_dat_o[26]
*400 wbs_dat_o[27]
*401 wbs_dat_o[28]
*402 wbs_dat_o[29]
*403 wbs_dat_o[2]
*404 wbs_dat_o[30]
*405 wbs_dat_o[31]
*406 wbs_dat_o[3]
*407 wbs_dat_o[4]
*408 wbs_dat_o[5]
*409 wbs_dat_o[6]
*410 wbs_dat_o[7]
*411 wbs_dat_o[8]
*412 wbs_dat_o[9]
*413 wbs_sel_i[0]
*414 wbs_sel_i[1]
*415 wbs_sel_i[2]
*416 wbs_sel_i[3]
*417 wbs_stb_i
*418 wbs_we_i
*419 wrapped_as2650

*PORTS
io_in[0] I
io_in[10] I
io_in[11] I
io_in[12] I
io_in[13] I
io_in[14] I
io_in[15] I
io_in[16] I
io_in[17] I
io_in[18] I
io_in[19] I
io_in[1] I
io_in[20] I
io_in[21] I
io_in[22] I
io_in[23] I
io_in[24] I
io_in[25] I
io_in[26] I
io_in[27] I
io_in[28] I
io_in[29] I
io_in[2] I
io_in[30] I
io_in[31] I
io_in[32] I
io_in[33] I
io_in[34] I
io_in[35] I
io_in[36] I
io_in[37] I
io_in[3] I
io_in[4] I
io_in[5] I
io_in[6] I
io_in[7] I
io_in[8] I
io_in[9] I
io_oeb[0] O
io_oeb[10] O
io_oeb[11] O
io_oeb[12] O
io_oeb[13] O
io_oeb[14] O
io_oeb[15] O
io_oeb[16] O
io_oeb[17] O
io_oeb[18] O
io_oeb[19] O
io_oeb[1] O
io_oeb[20] O
io_oeb[21] O
io_oeb[22] O
io_oeb[23] O
io_oeb[24] O
io_oeb[25] O
io_oeb[26] O
io_oeb[27] O
io_oeb[28] O
io_oeb[29] O
io_oeb[2] O
io_oeb[30] O
io_oeb[31] O
io_oeb[32] O
io_oeb[33] O
io_oeb[34] O
io_oeb[35] O
io_oeb[36] O
io_oeb[37] O
io_oeb[3] O
io_oeb[4] O
io_oeb[5] O
io_oeb[6] O
io_oeb[7] O
io_oeb[8] O
io_oeb[9] O
io_out[0] O
io_out[10] O
io_out[11] O
io_out[12] O
io_out[13] O
io_out[14] O
io_out[15] O
io_out[16] O
io_out[17] O
io_out[18] O
io_out[19] O
io_out[1] O
io_out[20] O
io_out[21] O
io_out[22] O
io_out[23] O
io_out[24] O
io_out[25] O
io_out[26] O
io_out[27] O
io_out[28] O
io_out[29] O
io_out[2] O
io_out[30] O
io_out[31] O
io_out[32] O
io_out[33] O
io_out[34] O
io_out[35] O
io_out[36] O
io_out[37] O
io_out[3] O
io_out[4] O
io_out[5] O
io_out[6] O
io_out[7] O
io_out[8] O
io_out[9] O
la_data_in[0] I
la_data_in[10] I
la_data_in[11] I
la_data_in[12] I
la_data_in[13] I
la_data_in[14] I
la_data_in[15] I
la_data_in[16] I
la_data_in[17] I
la_data_in[18] I
la_data_in[19] I
la_data_in[1] I
la_data_in[20] I
la_data_in[21] I
la_data_in[22] I
la_data_in[23] I
la_data_in[24] I
la_data_in[25] I
la_data_in[26] I
la_data_in[27] I
la_data_in[28] I
la_data_in[29] I
la_data_in[2] I
la_data_in[30] I
la_data_in[31] I
la_data_in[32] I
la_data_in[33] I
la_data_in[34] I
la_data_in[35] I
la_data_in[36] I
la_data_in[37] I
la_data_in[38] I
la_data_in[39] I
la_data_in[3] I
la_data_in[40] I
la_data_in[41] I
la_data_in[42] I
la_data_in[43] I
la_data_in[44] I
la_data_in[45] I
la_data_in[46] I
la_data_in[47] I
la_data_in[48] I
la_data_in[49] I
la_data_in[4] I
la_data_in[50] I
la_data_in[51] I
la_data_in[52] I
la_data_in[53] I
la_data_in[54] I
la_data_in[55] I
la_data_in[56] I
la_data_in[57] I
la_data_in[58] I
la_data_in[59] I
la_data_in[5] I
la_data_in[60] I
la_data_in[61] I
la_data_in[62] I
la_data_in[63] I
la_data_in[6] I
la_data_in[7] I
la_data_in[8] I
la_data_in[9] I
la_data_out[0] O
la_data_out[10] O
la_data_out[11] O
la_data_out[12] O
la_data_out[13] O
la_data_out[14] O
la_data_out[15] O
la_data_out[16] O
la_data_out[17] O
la_data_out[18] O
la_data_out[19] O
la_data_out[1] O
la_data_out[20] O
la_data_out[21] O
la_data_out[22] O
la_data_out[23] O
la_data_out[24] O
la_data_out[25] O
la_data_out[26] O
la_data_out[27] O
la_data_out[28] O
la_data_out[29] O
la_data_out[2] O
la_data_out[30] O
la_data_out[31] O
la_data_out[32] O
la_data_out[33] O
la_data_out[34] O
la_data_out[35] O
la_data_out[36] O
la_data_out[37] O
la_data_out[38] O
la_data_out[39] O
la_data_out[3] O
la_data_out[40] O
la_data_out[41] O
la_data_out[42] O
la_data_out[43] O
la_data_out[44] O
la_data_out[45] O
la_data_out[46] O
la_data_out[47] O
la_data_out[48] O
la_data_out[49] O
la_data_out[4] O
la_data_out[50] O
la_data_out[51] O
la_data_out[52] O
la_data_out[53] O
la_data_out[54] O
la_data_out[55] O
la_data_out[56] O
la_data_out[57] O
la_data_out[58] O
la_data_out[59] O
la_data_out[5] O
la_data_out[60] O
la_data_out[61] O
la_data_out[62] O
la_data_out[63] O
la_data_out[6] O
la_data_out[7] O
la_data_out[8] O
la_data_out[9] O
la_oenb[0] I
la_oenb[10] I
la_oenb[11] I
la_oenb[12] I
la_oenb[13] I
la_oenb[14] I
la_oenb[15] I
la_oenb[16] I
la_oenb[17] I
la_oenb[18] I
la_oenb[19] I
la_oenb[1] I
la_oenb[20] I
la_oenb[21] I
la_oenb[22] I
la_oenb[23] I
la_oenb[24] I
la_oenb[25] I
la_oenb[26] I
la_oenb[27] I
la_oenb[28] I
la_oenb[29] I
la_oenb[2] I
la_oenb[30] I
la_oenb[31] I
la_oenb[32] I
la_oenb[33] I
la_oenb[34] I
la_oenb[35] I
la_oenb[36] I
la_oenb[37] I
la_oenb[38] I
la_oenb[39] I
la_oenb[3] I
la_oenb[40] I
la_oenb[41] I
la_oenb[42] I
la_oenb[43] I
la_oenb[44] I
la_oenb[45] I
la_oenb[46] I
la_oenb[47] I
la_oenb[48] I
la_oenb[49] I
la_oenb[4] I
la_oenb[50] I
la_oenb[51] I
la_oenb[52] I
la_oenb[53] I
la_oenb[54] I
la_oenb[55] I
la_oenb[56] I
la_oenb[57] I
la_oenb[58] I
la_oenb[59] I
la_oenb[5] I
la_oenb[60] I
la_oenb[61] I
la_oenb[62] I
la_oenb[63] I
la_oenb[6] I
la_oenb[7] I
la_oenb[8] I
la_oenb[9] I
user_clock2 I
user_irq[0] O
user_irq[1] O
user_irq[2] O
wb_clk_i I
wb_rst_i I
wbs_ack_o O
wbs_adr_i[0] I
wbs_adr_i[10] I
wbs_adr_i[11] I
wbs_adr_i[12] I
wbs_adr_i[13] I
wbs_adr_i[14] I
wbs_adr_i[15] I
wbs_adr_i[16] I
wbs_adr_i[17] I
wbs_adr_i[18] I
wbs_adr_i[19] I
wbs_adr_i[1] I
wbs_adr_i[20] I
wbs_adr_i[21] I
wbs_adr_i[22] I
wbs_adr_i[23] I
wbs_adr_i[24] I
wbs_adr_i[25] I
wbs_adr_i[26] I
wbs_adr_i[27] I
wbs_adr_i[28] I
wbs_adr_i[29] I
wbs_adr_i[2] I
wbs_adr_i[30] I
wbs_adr_i[31] I
wbs_adr_i[3] I
wbs_adr_i[4] I
wbs_adr_i[5] I
wbs_adr_i[6] I
wbs_adr_i[7] I
wbs_adr_i[8] I
wbs_adr_i[9] I
wbs_cyc_i I
wbs_dat_i[0] I
wbs_dat_i[10] I
wbs_dat_i[11] I
wbs_dat_i[12] I
wbs_dat_i[13] I
wbs_dat_i[14] I
wbs_dat_i[15] I
wbs_dat_i[16] I
wbs_dat_i[17] I
wbs_dat_i[18] I
wbs_dat_i[19] I
wbs_dat_i[1] I
wbs_dat_i[20] I
wbs_dat_i[21] I
wbs_dat_i[22] I
wbs_dat_i[23] I
wbs_dat_i[24] I
wbs_dat_i[25] I
wbs_dat_i[26] I
wbs_dat_i[27] I
wbs_dat_i[28] I
wbs_dat_i[29] I
wbs_dat_i[2] I
wbs_dat_i[30] I
wbs_dat_i[31] I
wbs_dat_i[3] I
wbs_dat_i[4] I
wbs_dat_i[5] I
wbs_dat_i[6] I
wbs_dat_i[7] I
wbs_dat_i[8] I
wbs_dat_i[9] I
wbs_dat_o[0] O
wbs_dat_o[10] O
wbs_dat_o[11] O
wbs_dat_o[12] O
wbs_dat_o[13] O
wbs_dat_o[14] O
wbs_dat_o[15] O
wbs_dat_o[16] O
wbs_dat_o[17] O
wbs_dat_o[18] O
wbs_dat_o[19] O
wbs_dat_o[1] O
wbs_dat_o[20] O
wbs_dat_o[21] O
wbs_dat_o[22] O
wbs_dat_o[23] O
wbs_dat_o[24] O
wbs_dat_o[25] O
wbs_dat_o[26] O
wbs_dat_o[27] O
wbs_dat_o[28] O
wbs_dat_o[29] O
wbs_dat_o[2] O
wbs_dat_o[30] O
wbs_dat_o[31] O
wbs_dat_o[3] O
wbs_dat_o[4] O
wbs_dat_o[5] O
wbs_dat_o[6] O
wbs_dat_o[7] O
wbs_dat_o[8] O
wbs_dat_o[9] O
wbs_sel_i[0] I
wbs_sel_i[1] I
wbs_sel_i[2] I
wbs_sel_i[3] I
wbs_stb_i I
wbs_we_i I

*D_NET *1 0.40171
*CONN
*P io_in[0] I
*I *419:io_in[0] I *D wrapped_as2650
*CAP
1 io_in[0] 0.0653988
2 *419:io_in[0] 0
3 *1:9 0.101751
4 *1:7 0.101751
5 *1:5 0.0653988
6 *1:5 la_data_out[14] 0
7 *1:5 la_data_out[15] 0
8 *1:5 la_data_out[17] 0
9 *1:5 la_data_out[19] 0
10 *1:5 la_data_out[20] 0
11 *1:5 la_data_out[3] 0.000396912
12 *1:5 la_data_out[7] 0
13 *1:5 *193:9 0.00402572
14 *1:5 *194:17 0
15 *1:5 *195:17 0
16 *1:5 *199:17 0
17 *1:5 *200:9 0.000790732
18 *1:5 *201:11 0
19 *1:5 *202:17 0
20 *1:5 *204:9 0.00760571
21 *1:5 *215:17 0
22 *1:5 *216:17 7.61599e-05
23 *1:5 *217:9 0
24 *1:5 *220:9 0.0128347
25 *1:5 *222:17 0
26 *1:5 *237:17 0
27 *1:9 la_data_out[5] 0.0416805
*RES
1 io_in[0] *1:5 654.004 
2 *1:5 *1:7 4.5 
3 *1:7 *1:9 910.52 
4 *1:9 *419:io_in[0] 9 
*END

*D_NET *2 0.375683
*CONN
*P io_in[10] I
*I *419:io_in[10] I *D wrapped_as2650
*CAP
1 io_in[10] 0.00107785
2 *419:io_in[10] 0.000984374
3 *2:13 0.0346145
4 *2:11 0.0336301
5 *2:9 0.00192903
6 *2:7 0.00300687
7 *419:io_in[10] *112:15 0.000413858
8 *2:9 *75:21 0.0697561
9 *2:9 *78:21 0.060242
10 *2:9 *112:21 1.87108e-05
11 *2:13 *4:13 0.0129215
12 *2:13 *10:9 0.000215884
13 *2:13 *19:13 0.0631709
14 *2:13 *37:25 0.00285662
15 *2:13 *58:9 0.00500283
16 *2:13 *59:9 0.0242239
17 *2:13 *65:9 3.646e-05
18 *2:13 *66:9 0.0271525
19 *2:13 *75:9 0.00743367
20 *2:13 *78:11 0.0172045
21 *2:13 *96:15 0.00140237
22 *2:13 *101:15 0.00388919
23 *2:13 *111:15 0.000296071
24 *2:13 *112:17 0
25 *2:13 *114:9 0.00420367
*RES
1 io_in[10] *2:7 13.08 
2 *2:7 *2:9 181.272 
3 *2:9 *2:11 4.5 
4 *2:11 *2:13 545.688 
5 *2:13 *419:io_in[10] 11 
*END

*D_NET *3 0.285824
*CONN
*P io_in[11] I
*I *419:io_in[11] I *D wrapped_as2650
*CAP
1 io_in[11] 0.0305478
2 *419:io_in[11] 0.000460786
3 *3:13 0.00916018
4 *3:11 0.00869939
5 *3:9 0.00449087
6 *3:7 0.00449087
7 *3:5 0.0305478
8 *3:9 *4:11 0.0118754
9 *3:9 *23:9 0.00339646
10 *3:9 *38:9 0.0406496
11 *3:13 *12:13 0.00813206
12 *3:13 *75:17 0.000358362
13 *3:13 *96:17 0.0120714
14 *3:13 *109:9 0.111518
15 *3:13 *111:23 0.00942426
*RES
1 io_in[11] *3:5 262.132 
2 *3:5 *3:7 4.5 
3 *3:7 *3:9 104.312 
4 *3:9 *3:11 4.5 
5 *3:11 *3:13 282.152 
6 *3:13 *419:io_in[11] 7.256 
*END

*D_NET *4 0.276265
*CONN
*P io_in[12] I
*I *419:io_in[12] I *D wrapped_as2650
*CAP
1 io_in[12] 0.0305564
2 *419:io_in[12] 0.00096366
3 *4:13 0.00408677
4 *4:11 0.00542743
5 *4:5 0.0328607
6 *4:11 *23:9 0.00104752
7 *4:11 *38:9 0.000408646
8 *4:13 *37:25 0.000958483
9 *4:13 *38:13 0.107475
10 *4:13 *58:9 0.0319624
11 *4:13 *59:9 0.00172657
12 *4:13 *75:9 0.0265651
13 *4:13 *101:15 0.00742946
14 *4:13 *112:17 0
15 *2:13 *4:13 0.0129215
16 *3:9 *4:11 0.0118754
*RES
1 io_in[12] *4:5 261.924 
2 *4:5 *4:11 42.8 
3 *4:11 *4:13 272.376 
4 *4:13 *419:io_in[12] 10.376 
*END

*D_NET *5 0.133801
*CONN
*P io_in[13] I
*I *419:io_in[13] I *D wrapped_as2650
*CAP
1 io_in[13] 0.0603846
2 *419:io_in[13] 0.0065158
3 *5:7 0.0065158
4 *5:5 0.0603846
5 *5:5 *85:9 0
*RES
1 io_in[13] *5:5 524.212 
2 *5:5 *5:7 4.5 
3 *5:7 *419:io_in[13] 45.812 
*END

*D_NET *6 0.153525
*CONN
*P io_in[14] I
*I *419:io_in[14] I *D wrapped_as2650
*CAP
1 io_in[14] 0.00146141
2 *419:io_in[14] 0.00370453
3 *6:13 0.0471472
4 *6:11 0.0434427
5 *6:9 0.0115801
6 *6:7 0.0130415
7 *6:13 io_oeb[12] 0.0331473
*RES
1 io_in[14] *6:7 14.12 
2 *6:7 *6:9 97.24 
3 *6:9 *6:11 4.5 
4 *6:11 *6:13 504.712 
5 *6:13 *419:io_in[14] 26.808 
*END

*D_NET *7 0.204048
*CONN
*P io_in[15] I
*I *419:io_in[15] I *D wrapped_as2650
*CAP
1 io_in[15] 0.00150022
2 *419:io_in[15] 0.0213241
3 *7:11 0.0213241
4 *7:9 0.0272673
5 *7:7 0.0287675
6 *419:io_in[15] *78:15 0.000786499
7 *7:9 io_oeb[14] 0.0832049
8 *7:9 *13:9 0.0198731
*RES
1 io_in[15] *7:7 17.24 
2 *7:7 *7:9 483.912 
3 *7:9 *7:11 4.5 
4 *7:11 *419:io_in[15] 168.948 
*END

*D_NET *8 0.226861
*CONN
*P io_in[16] I
*I *419:io_in[16] I *D wrapped_as2650
*CAP
1 io_in[16] 0.00452247
2 *419:io_in[16] 0.0183779
3 *8:11 0.0183779
4 *8:9 0.0207011
5 *8:7 0.0252236
6 *8:9 io_out[14] 0.139658
*RES
1 io_in[16] *8:7 41.992 
2 *8:7 *8:9 351 
3 *8:9 *8:11 4.5 
4 *8:11 *419:io_in[16] 144.196 
*END

*D_NET *9 0.106297
*CONN
*P io_in[17] I
*I *419:io_in[17] I *D wrapped_as2650
*CAP
1 io_in[17] 0.00265518
2 *419:io_in[17] 0.020449
3 *9:11 0.020449
4 *9:9 0.0228769
5 *9:7 0.025532
6 *9:9 *14:9 0.00115497
7 *9:9 *51:9 0.0131795
*RES
1 io_in[17] *9:7 26.184 
2 *9:7 *9:9 218.088 
3 *9:9 *9:11 4.5 
4 *9:11 *419:io_in[17] 160.004 
*END

*D_NET *10 0.0873195
*CONN
*P io_in[18] I
*I *419:io_in[18] I *D wrapped_as2650
*CAP
1 io_in[18] 0.0215569
2 *419:io_in[18] 0.00128657
3 *10:9 0.00291452
4 *10:7 0.00162795
5 *10:5 0.0215569
6 *10:5 *57:7 0
7 *10:5 *84:13 0
8 *10:5 *95:7 0
9 *10:9 *19:13 0.00404735
10 *10:9 *49:9 0.00518347
11 *10:9 *53:9 0.00511439
12 *10:9 *86:9 0.0148476
13 *10:9 *96:15 0.00102347
14 *10:9 *114:9 0.00794444
15 *2:13 *10:9 0.000215884
*RES
1 io_in[18] *10:5 174.356 
2 *10:5 *10:7 4.5 
3 *10:7 *10:9 85.176 
4 *10:9 *419:io_in[18] 11.832 
*END

*D_NET *11 0.0573844
*CONN
*P io_in[19] I
*I *419:io_in[19] I *D wrapped_as2650
*CAP
1 io_in[19] 0.00299424
2 *419:io_in[19] 0.0200715
3 *11:11 0.0200715
4 *11:9 0.00548061
5 *11:7 0.00847485
6 *11:7 *44:5 0.000291629
*RES
1 io_in[19] *11:7 29.72 
2 *11:7 *11:9 47.944 
3 *11:9 *11:11 4.5 
4 *11:11 *419:io_in[19] 156.468 
*END

*D_NET *12 0.601986
*CONN
*P io_in[1] I
*I *419:io_in[1] I *D wrapped_as2650
*CAP
1 io_in[1] 0.00119074
2 *419:io_in[1] 0.000872009
3 *12:21 0.0065315
4 *12:19 0.00615652
5 *12:13 0.0402484
6 *12:11 0.0397514
7 *12:9 0.0946215
8 *12:7 0.0958123
9 *12:9 *37:9 0.0109826
10 *12:9 *111:27 0.0379973
11 *12:9 *112:21 0.00960388
12 *12:9 *113:21 0.00823369
13 *12:13 *23:13 7.4977e-05
14 *12:13 *34:13 0
15 *12:13 *39:15 0.131502
16 *12:13 *58:17 0.00248206
17 *12:13 *75:17 0.0085008
18 *12:13 *78:17 0.0071864
19 *12:13 *96:17 0.00625613
20 *12:13 *99:15 4.57323e-05
21 *12:13 *109:9 0.00728139
22 *12:13 *111:23 0.0276301
23 *12:13 *112:17 0.00650028
24 *12:21 *19:13 0.00387941
25 *12:21 *21:21 0.00606939
26 *12:21 *23:13 0.000268724
27 *12:21 *31:13 0
28 *12:21 *37:25 0.0205416
29 *12:21 *39:15 0
30 *12:21 *53:9 0.000463565
31 *12:21 *75:9 0.000617649
32 *12:21 *99:15 0.00381433
33 *12:21 *111:15 0.0087375
34 *3:13 *12:13 0.00813206
*RES
1 io_in[1] *12:7 14.12 
2 *12:7 *12:9 840.992 
3 *12:9 *12:11 4.5 
4 *12:11 *12:13 223.955 
5 *12:13 *12:19 11.444 
6 *12:19 *12:21 47.9118 
7 *12:21 *419:io_in[1] 19.4763 
*END

*D_NET *13 0.102344
*CONN
*P io_in[20] I
*I *419:io_in[20] I *D wrapped_as2650
*CAP
1 io_in[20] 0.00153713
2 *419:io_in[20] 0.0216656
3 *13:11 0.0216656
4 *13:9 0.0176428
5 *13:7 0.0191799
6 *13:9 io_oeb[14] 0.000779948
7 *7:9 *13:9 0.0198731
*RES
1 io_in[20] *13:7 17.032 
2 *13:7 *13:9 180.44 
3 *13:9 *13:11 4.5 
4 *13:11 *419:io_in[20] 169.156 
*END

*D_NET *14 0.194839
*CONN
*P io_in[21] I
*I *419:io_in[21] I *D wrapped_as2650
*CAP
1 io_in[21] 0.00270369
2 *419:io_in[21] 0.0203767
3 *14:11 0.0203767
4 *14:9 0.0208207
5 *14:7 0.0235244
6 *14:9 *51:9 0.105882
7 *9:9 *14:9 0.00115497
*RES
1 io_in[21] *14:7 26.6 
2 *14:7 *14:9 313.768 
3 *14:9 *14:11 4.5 
4 *14:11 *419:io_in[21] 159.588 
*END

*D_NET *15 0.14936
*CONN
*P io_in[22] I
*I *419:io_in[22] I *D wrapped_as2650
*CAP
1 io_in[22] 0.00491039
2 *419:io_in[22] 0.0180069
3 *15:11 0.0180069
4 *15:9 0.0451751
5 *15:7 0.0500855
6 *419:io_in[22] *20:19 0
7 *15:9 io_out[24] 0.0131753
*RES
1 io_in[22] *15:7 45.32 
2 *15:7 *15:9 446.68 
3 *15:9 *15:11 4.5 
4 *15:11 *419:io_in[22] 140.868 
*END

*D_NET *16 0.293815
*CONN
*P io_in[23] I
*I *419:io_in[23] I *D wrapped_as2650
*CAP
1 io_in[23] 0.0041423
2 *419:io_in[23] 0.0187507
3 *16:11 0.0187507
4 *16:9 0.0431476
5 *16:7 0.0472899
6 *16:9 *45:9 0.00286978
7 *16:9 *52:9 0.158864
*RES
1 io_in[23] *16:7 39.08 
2 *16:7 *16:9 579.592 
3 *16:9 *16:11 4.5 
4 *16:11 *419:io_in[23] 147.108 
*END

*D_NET *17 0.199964
*CONN
*P io_in[24] I
*I *419:io_in[24] I *D wrapped_as2650
*CAP
1 io_in[24] 0.0789326
2 *419:io_in[24] 0.0210495
3 *17:7 0.0210495
4 *17:5 0.0789326
*RES
1 io_in[24] *17:5 691.236 
2 *17:5 *17:7 4.5 
3 *17:7 *419:io_in[24] 165.828 
*END

*D_NET *18 0.188843
*CONN
*P io_in[25] I
*I *419:io_in[25] I *D wrapped_as2650
*CAP
1 io_in[25] 0.0804284
2 *419:io_in[25] 0.0139932
3 *18:7 0.0139932
4 *18:5 0.0804284
*RES
1 io_in[25] *18:5 701.22 
2 *18:5 *18:7 4.5 
3 *18:7 *419:io_in[25] 87.204 
*END

*D_NET *19 0.376411
*CONN
*P io_in[26] I
*I *419:io_in[26] I *D wrapped_as2650
*CAP
1 io_in[26] 0.00113162
2 *419:io_in[26] 0.000933878
3 *19:13 0.0412752
4 *19:11 0.041473
5 *419:io_in[26] *22:23 0.000683735
6 *19:11 *65:21 4.48129e-05
7 *19:11 *66:17 0.000597035
8 *19:13 *37:25 0.00342388
9 *19:13 *53:9 0.211303
10 *19:13 *66:17 0
11 *19:13 *75:9 0.00194385
12 *19:13 *101:15 0.00233556
13 *19:13 *112:15 0.00016777
14 *2:13 *19:13 0.0631709
15 *10:9 *19:13 0.00404735
16 *12:21 *19:13 0.00387941
*RES
1 io_in[26] *19:11 19.556 
2 *19:11 *19:13 702.728 
3 *19:13 *419:io_in[26] 11.208 
*END

*D_NET *20 0.44319
*CONN
*P io_in[27] I
*I *419:io_in[27] I *D wrapped_as2650
*CAP
1 io_in[27] 0.00131816
2 *419:io_in[27] 0.000836373
3 *20:21 0.00262959
4 *20:19 0.00252259
5 *20:13 0.037407
6 *20:11 0.0366776
7 *20:9 9.69006e-05
8 *20:7 0.00141506
9 *20:9 *21:9 0.0275272
10 *20:9 *58:21 0.0275179
11 *20:13 *22:13 0.264728
12 *20:13 *32:13 0.000260269
13 *20:13 *33:13 0.000309665
14 *20:13 *34:13 0.00616129
15 *20:13 *37:13 0.0174119
16 *20:13 *98:9 0
17 *20:19 *53:7 7.51586e-05
18 *20:21 *22:23 0.00415326
19 *20:21 *38:13 0.00624134
20 *20:21 *111:15 0.00213714
21 *20:21 *112:17 0.0037633
22 *419:io_in[22] *20:19 0
*RES
1 io_in[27] *20:7 12.872 
2 *20:7 *20:9 70.616 
3 *20:9 *20:11 4.5 
4 *20:11 *20:13 665.08 
5 *20:13 *20:19 13.68 
6 *20:19 *20:21 47.944 
7 *20:21 *419:io_in[27] 9.752 
*END

*D_NET *21 0.561824
*CONN
*P io_in[28] I
*I *419:io_in[28] I *D wrapped_as2650
*CAP
1 io_in[28] 0.00125405
2 *419:io_in[28] 0.000914104
3 *21:21 0.00151715
4 *21:19 0.000794161
5 *21:13 0.0319975
6 *21:11 0.0318063
7 *21:9 0.00239545
8 *21:7 0.0036495
9 *21:9 *22:9 0.000367323
10 *21:9 *58:21 0.00901462
11 *21:9 *59:21 0.0571679
12 *21:9 *60:10 0
13 *21:9 *65:21 1.57479e-05
14 *21:9 *101:27 0.00035898
15 *21:13 *23:13 0.00390701
16 *21:13 *39:15 0.000566509
17 *21:13 *101:23 0.219807
18 *21:13 *112:15 0.000266853
19 *21:13 *112:17 0.00393392
20 *21:13 *113:15 0.000864716
21 *21:19 *113:15 0.00039669
22 *21:21 *22:23 0.000227828
23 *21:21 *37:25 0.00569215
24 *21:21 *38:13 0.00705969
25 *21:21 *99:15 0.000686976
26 *21:21 *101:15 0.0631651
27 *21:21 *111:15 0.0804004
28 *12:21 *21:21 0.00606939
29 *20:9 *21:9 0.0275272
*RES
1 io_in[28] *21:7 12.664 
2 *21:7 *21:9 152.568 
3 *21:9 *21:11 4.5 
4 *21:11 *21:13 552.968 
5 *21:13 *21:19 10.43 
6 *21:19 *21:21 72.9464 
7 *21:21 *419:io_in[28] 19.142 
*END

*D_NET *22 0.611452
*CONN
*P io_in[29] I
*I *419:io_in[29] I *D wrapped_as2650
*CAP
1 io_in[29] 0.000923448
2 *419:io_in[29] 0.000854664
3 *22:23 0.00210311
4 *22:13 0.0251861
5 *22:11 0.0239376
6 *22:9 0.00177537
7 *22:7 0.00269882
8 *22:9 *59:21 0.0777285
9 *22:9 *101:27 0.088762
10 *22:13 *28:13 0.00673934
11 *22:13 *32:13 0.000289266
12 *22:13 *33:13 0.000339191
13 *22:13 *34:13 0.00788705
14 *22:13 *36:13 0.00410842
15 *22:13 *37:13 0.00642128
16 *22:13 *40:11 0.0616186
17 *22:13 *60:6 0.0147656
18 *22:13 *110:6 0.00112906
19 *22:23 *38:13 0.012123
20 *22:23 *111:15 0.000587845
21 *22:23 *112:17 0.00131382
22 *419:io_in[26] *22:23 0.000683735
23 *20:13 *22:13 0.264728
24 *20:21 *22:23 0.00415326
25 *21:9 *22:9 0.000367323
26 *21:21 *22:23 0.000227828
*RES
1 io_in[29] *22:7 12.248 
2 *22:7 *22:9 227.448 
3 *22:9 *22:11 4.5 
4 *22:11 *22:13 703.144 
5 *22:13 *22:23 49.068 
6 *22:23 *419:io_in[29] 5.46 
*END

*D_NET *23 0.737695
*CONN
*P io_in[2] I
*I *419:io_in[2] I *D wrapped_as2650
*CAP
1 io_in[2] 0.0300545
2 *419:io_in[2] 0.00067229
3 *23:13 0.00191552
4 *23:11 0.00124323
5 *23:9 0.0076515
6 *23:7 0.0076515
7 *23:5 0.0300545
8 *23:9 *38:9 0.00474583
9 *23:9 *39:19 0.134156
10 *23:9 *99:19 0.129844
11 *23:13 *39:15 0.181041
12 *23:13 *78:17 0.0109248
13 *23:13 *99:15 0.178049
14 *23:13 *112:17 0.010997
15 *3:9 *23:9 0.00339646
16 *4:11 *23:9 0.00104752
17 *12:13 *23:13 7.4977e-05
18 *12:21 *23:13 0.000268724
19 *21:13 *23:13 0.00390701
*RES
1 io_in[2] *23:5 261.924 
2 *23:5 *23:7 4.5 
3 *23:7 *23:9 768.445 
4 *23:9 *23:11 4.5 
5 *23:11 *23:13 159.454 
6 *23:13 *419:io_in[2] 17.8049 
*END

*D_NET *24 0.242583
*CONN
*P io_in[30] I
*I *419:io_in[30] I *D wrapped_as2650
*CAP
1 io_in[30] 0.0865328
2 *419:io_in[30] 0.00113055
3 *24:9 0.0344391
4 *24:7 0.0333086
5 *24:5 0.0865328
6 *419:io_in[30] *35:13 0.000533012
7 *419:io_in[30] *113:17 0.000106286
*RES
1 io_in[30] *24:5 748.228 
2 *24:5 *24:7 4.5 
3 *24:7 *24:9 298.688 
4 *24:9 *419:io_in[30] 18.828 
*END

*D_NET *25 0.262207
*CONN
*P io_in[31] I
*I *419:io_in[31] I *D wrapped_as2650
*CAP
1 io_in[31] 0.088104
2 *419:io_in[31] 0.000875282
3 *25:9 0.0429993
4 *25:7 0.0421241
5 *25:5 0.088104
*RES
1 io_in[31] *25:5 760.708 
2 *25:5 *25:7 4.5 
3 *25:7 *25:9 377.312 
4 *25:9 *419:io_in[31] 15.968 
*END

*D_NET *26 0.465475
*CONN
*P io_in[32] I
*I *419:io_in[32] I *D wrapped_as2650
*CAP
1 io_in[32] 0.0498305
2 *419:io_in[32] 0.00152868
3 *26:13 0.00913421
4 *26:11 0.00760553
5 *26:9 0.0563431
6 *26:7 0.0563431
7 *26:5 0.0498305
8 *26:13 *27:13 0.133493
9 *26:13 *30:13 0.000764682
10 *26:13 *63:9 0
11 *26:13 *76:9 0.0896998
12 *26:13 *77:15 0.0109025
*RES
1 io_in[32] *26:5 434.564 
2 *26:5 *26:7 4.5 
3 *26:7 *26:9 472.888 
4 *26:9 *26:11 4.5 
5 *26:11 *26:13 336.648 
6 *26:13 *419:io_in[32] 14.12 
*END

*D_NET *27 0.512024
*CONN
*P io_in[33] I
*I *419:io_in[33] I *D wrapped_as2650
*CAP
1 io_in[33] 0.0490656
2 *419:io_in[33] 0.00148404
3 *27:13 0.0036181
4 *27:11 0.00213406
5 *27:9 0.0656255
6 *27:7 0.0656255
7 *27:5 0.0490656
8 *27:13 *29:13 0.0102133
9 *27:13 *30:13 0.00105357
10 *27:13 *63:9 0
11 *27:13 *76:9 0.00171482
12 *27:13 *77:15 0.0127816
13 *27:13 *108:9 0.11615
14 *26:13 *27:13 0.133493
*RES
1 io_in[33] *27:5 428.324 
2 *27:5 *27:7 4.5 
3 *27:7 *27:9 551.304 
4 *27:9 *27:11 4.5 
5 *27:11 *27:13 352.872 
6 *27:13 *419:io_in[33] 13.912 
*END

*D_NET *28 0.501935
*CONN
*P io_in[34] I
*I *419:io_in[34] I *D wrapped_as2650
*CAP
1 io_in[34] 0.022659
2 *419:io_in[34] 2.47204e-05
3 *28:13 0.0434573
4 *28:11 0.0434326
5 *28:9 0.069415
6 *28:7 0.069415
7 *28:5 0.022659
8 *28:13 *32:13 0.151699
9 *28:13 *35:13 0.0105014
10 *28:13 *59:17 0.0261012
11 *28:13 *60:6 0.0253772
12 *28:13 *113:17 0.0104538
13 *22:13 *28:13 0.00673934
*RES
1 io_in[34] *28:5 197.444 
2 *28:5 *28:7 4.5 
3 *28:7 *28:9 619.703 
4 *28:9 *28:11 4.5 
5 *28:11 *28:13 254.335 
6 *28:13 *419:io_in[34] 13.6374 
*END

*D_NET *29 0.564019
*CONN
*P io_in[35] I
*I *419:io_in[35] I *D wrapped_as2650
*CAP
1 io_in[35] 0.0486183
2 *419:io_in[35] 0.00135398
3 *29:13 0.00344976
4 *29:11 0.00209578
5 *29:9 0.0841734
6 *29:7 0.0841734
7 *29:5 0.0486183
8 *29:13 *30:13 0.017043
9 *29:13 *50:9 0.133255
10 *29:13 *95:9 0.00689144
11 *29:13 *108:9 0.124133
12 *27:13 *29:13 0.0102133
*RES
1 io_in[35] *29:5 425.204 
2 *29:5 *29:7 4.5 
3 *29:7 *29:9 708.136 
4 *29:9 *29:11 4.5 
5 *29:11 *29:13 375.96 
6 *29:13 *419:io_in[35] 13.496 
*END

*D_NET *30 0.661205
*CONN
*P io_in[36] I
*I *419:io_in[36] I *D wrapped_as2650
*CAP
1 io_in[36] 0.0482575
2 *419:io_in[36] 0.00133548
3 *30:13 0.00388446
4 *30:11 0.00254898
5 *30:9 0.0882617
6 *30:7 0.0882617
7 *30:5 0.0482575
8 *30:13 *31:13 0.189628
9 *30:13 *77:15 0.171908
10 *26:13 *30:13 0.000764682
11 *27:13 *30:13 0.00105357
12 *29:13 *30:13 0.017043
*RES
1 io_in[36] *30:5 422.084 
2 *30:5 *30:7 4.5 
3 *30:7 *30:9 786.645 
4 *30:9 *30:11 4.5 
5 *30:11 *30:13 166.67 
6 *30:13 *419:io_in[36] 22.4849 
*END

*D_NET *31 0.577361
*CONN
*P io_in[37] I
*I *419:io_in[37] I *D wrapped_as2650
*CAP
1 io_in[37] 0.0445221
2 *419:io_in[37] 0.00126099
3 *31:13 0.0258055
4 *31:11 0.0245446
5 *31:9 0.0970815
6 *31:7 0.0970815
7 *31:5 0.0445221
8 *31:13 *37:25 0
9 *31:13 *50:9 0.0126973
10 *31:13 *66:17 0.0139121
11 *31:13 *76:9 0.000575313
12 *31:13 *77:15 0.00198042
13 *31:13 *86:9 0.00100423
14 *31:13 *95:9 0.0146618
15 *31:13 *101:15 0