*SPEF "ieee 1481-1999"
*DESIGN "user_project_wrapper"
*DATE "11:11:11 Fri 11 11, 1111"
*VENDOR "OpenRCX"
*PROGRAM "Parallel Extraction"
*VERSION "1.0"
*DESIGN_FLOW "NAME_SCOPE LOCAL" "PIN_CAP NONE"
*DIVIDER /
*DELIMITER :
*BUS_DELIMITER []
*T_UNIT 1 NS
*C_UNIT 1 PF
*R_UNIT 1 OHM
*L_UNIT 1 HENRY

*NAME_MAP
*1 io_in[0]
*2 io_in[10]
*3 io_in[11]
*4 io_in[12]
*5 io_in[13]
*6 io_in[14]
*7 io_in[15]
*8 io_in[16]
*9 io_in[17]
*10 io_in[18]
*11 io_in[19]
*12 io_in[1]
*13 io_in[20]
*14 io_in[21]
*15 io_in[22]
*16 io_in[23]
*17 io_in[24]
*18 io_in[25]
*19 io_in[26]
*20 io_in[27]
*21 io_in[28]
*22 io_in[29]
*23 io_in[2]
*24 io_in[30]
*25 io_in[31]
*26 io_in[32]
*27 io_in[33]
*28 io_in[34]
*29 io_in[35]
*30 io_in[36]
*31 io_in[37]
*32 io_in[3]
*33 io_in[4]
*34 io_in[5]
*35 io_in[6]
*36 io_in[7]
*37 io_in[8]
*38 io_in[9]
*39 io_oeb[0]
*40 io_oeb[10]
*41 io_oeb[11]
*42 io_oeb[12]
*43 io_oeb[13]
*44 io_oeb[14]
*45 io_oeb[15]
*46 io_oeb[16]
*47 io_oeb[17]
*48 io_oeb[18]
*49 io_oeb[19]
*50 io_oeb[1]
*51 io_oeb[20]
*52 io_oeb[21]
*53 io_oeb[22]
*54 io_oeb[23]
*55 io_oeb[24]
*56 io_oeb[25]
*57 io_oeb[26]
*58 io_oeb[27]
*59 io_oeb[28]
*60 io_oeb[29]
*61 io_oeb[2]
*62 io_oeb[30]
*63 io_oeb[31]
*64 io_oeb[32]
*65 io_oeb[33]
*66 io_oeb[34]
*67 io_oeb[35]
*68 io_oeb[36]
*69 io_oeb[37]
*70 io_oeb[3]
*71 io_oeb[4]
*72 io_oeb[5]
*73 io_oeb[6]
*74 io_oeb[7]
*75 io_oeb[8]
*76 io_oeb[9]
*77 io_out[0]
*78 io_out[10]
*79 io_out[11]
*80 io_out[12]
*81 io_out[13]
*82 io_out[14]
*83 io_out[15]
*84 io_out[16]
*85 io_out[17]
*86 io_out[18]
*87 io_out[19]
*88 io_out[1]
*89 io_out[20]
*90 io_out[21]
*91 io_out[22]
*92 io_out[23]
*93 io_out[24]
*94 io_out[25]
*95 io_out[26]
*96 io_out[27]
*97 io_out[28]
*98 io_out[29]
*99 io_out[2]
*100 io_out[30]
*101 io_out[31]
*102 io_out[32]
*103 io_out[33]
*104 io_out[34]
*105 io_out[35]
*106 io_out[36]
*107 io_out[37]
*108 io_out[3]
*109 io_out[4]
*110 io_out[5]
*111 io_out[6]
*112 io_out[7]
*113 io_out[8]
*114 io_out[9]
*115 la_data_in[0]
*116 la_data_in[10]
*117 la_data_in[11]
*118 la_data_in[12]
*119 la_data_in[13]
*120 la_data_in[14]
*121 la_data_in[15]
*122 la_data_in[16]
*123 la_data_in[17]
*124 la_data_in[18]
*125 la_data_in[19]
*126 la_data_in[1]
*127 la_data_in[20]
*128 la_data_in[21]
*129 la_data_in[22]
*130 la_data_in[23]
*131 la_data_in[24]
*132 la_data_in[25]
*133 la_data_in[26]
*134 la_data_in[27]
*135 la_data_in[28]
*136 la_data_in[29]
*137 la_data_in[2]
*138 la_data_in[30]
*139 la_data_in[31]
*140 la_data_in[32]
*141 la_data_in[33]
*142 la_data_in[34]
*143 la_data_in[35]
*144 la_data_in[36]
*145 la_data_in[37]
*146 la_data_in[38]
*147 la_data_in[39]
*148 la_data_in[3]
*149 la_data_in[40]
*150 la_data_in[41]
*151 la_data_in[42]
*152 la_data_in[43]
*153 la_data_in[44]
*154 la_data_in[45]
*155 la_data_in[46]
*156 la_data_in[47]
*157 la_data_in[48]
*158 la_data_in[49]
*159 la_data_in[4]
*160 la_data_in[50]
*161 la_data_in[51]
*162 la_data_in[52]
*163 la_data_in[53]
*164 la_data_in[54]
*165 la_data_in[55]
*166 la_data_in[56]
*167 la_data_in[57]
*168 la_data_in[58]
*169 la_data_in[59]
*170 la_data_in[5]
*171 la_data_in[60]
*172 la_data_in[61]
*173 la_data_in[62]
*174 la_data_in[63]
*175 la_data_in[6]
*176 la_data_in[7]
*177 la_data_in[8]
*178 la_data_in[9]
*179 la_data_out[0]
*180 la_data_out[10]
*181 la_data_out[11]
*182 la_data_out[12]
*183 la_data_out[13]
*184 la_data_out[14]
*185 la_data_out[15]
*186 la_data_out[16]
*187 la_data_out[17]
*188 la_data_out[18]
*189 la_data_out[19]
*190 la_data_out[1]
*191 la_data_out[20]
*192 la_data_out[21]
*193 la_data_out[22]
*194 la_data_out[23]
*195 la_data_out[24]
*196 la_data_out[25]
*197 la_data_out[26]
*198 la_data_out[27]
*199 la_data_out[28]
*200 la_data_out[29]
*201 la_data_out[2]
*202 la_data_out[30]
*203 la_data_out[31]
*204 la_data_out[32]
*205 la_data_out[33]
*206 la_data_out[34]
*207 la_data_out[35]
*208 la_data_out[36]
*209 la_data_out[37]
*210 la_data_out[38]
*211 la_data_out[39]
*212 la_data_out[3]
*213 la_data_out[40]
*214 la_data_out[41]
*215 la_data_out[42]
*216 la_data_out[43]
*217 la_data_out[44]
*218 la_data_out[45]
*219 la_data_out[46]
*220 la_data_out[47]
*221 la_data_out[48]
*222 la_data_out[49]
*223 la_data_out[4]
*224 la_data_out[50]
*225 la_data_out[51]
*226 la_data_out[52]
*227 la_data_out[53]
*228 la_data_out[54]
*229 la_data_out[55]
*230 la_data_out[56]
*231 la_data_out[57]
*232 la_data_out[58]
*233 la_data_out[59]
*234 la_data_out[5]
*235 la_data_out[60]
*236 la_data_out[61]
*237 la_data_out[62]
*238 la_data_out[63]
*239 la_data_out[6]
*240 la_data_out[7]
*241 la_data_out[8]
*242 la_data_out[9]
*243 la_oenb[0]
*244 la_oenb[10]
*245 la_oenb[11]
*246 la_oenb[12]
*247 la_oenb[13]
*248 la_oenb[14]
*249 la_oenb[15]
*250 la_oenb[16]
*251 la_oenb[17]
*252 la_oenb[18]
*253 la_oenb[19]
*254 la_oenb[1]
*255 la_oenb[20]
*256 la_oenb[21]
*257 la_oenb[22]
*258 la_oenb[23]
*259 la_oenb[24]
*260 la_oenb[25]
*261 la_oenb[26]
*262 la_oenb[27]
*263 la_oenb[28]
*264 la_oenb[29]
*265 la_oenb[2]
*266 la_oenb[30]
*267 la_oenb[31]
*268 la_oenb[32]
*269 la_oenb[33]
*270 la_oenb[34]
*271 la_oenb[35]
*272 la_oenb[36]
*273 la_oenb[37]
*274 la_oenb[38]
*275 la_oenb[39]
*276 la_oenb[3]
*277 la_oenb[40]
*278 la_oenb[41]
*279 la_oenb[42]
*280 la_oenb[43]
*281 la_oenb[44]
*282 la_oenb[45]
*283 la_oenb[46]
*284 la_oenb[47]
*285 la_oenb[48]
*286 la_oenb[49]
*287 la_oenb[4]
*288 la_oenb[50]
*289 la_oenb[51]
*290 la_oenb[52]
*291 la_oenb[53]
*292 la_oenb[54]
*293 la_oenb[55]
*294 la_oenb[56]
*295 la_oenb[57]
*296 la_oenb[58]
*297 la_oenb[59]
*298 la_oenb[5]
*299 la_oenb[60]
*300 la_oenb[61]
*301 la_oenb[62]
*302 la_oenb[63]
*303 la_oenb[6]
*304 la_oenb[7]
*305 la_oenb[8]
*306 la_oenb[9]
*307 user_clock2
*308 user_irq[0]
*309 user_irq[1]
*310 user_irq[2]
*313 wb_clk_i
*314 wb_rst_i
*315 wbs_ack_o
*316 wbs_adr_i[0]
*317 wbs_adr_i[10]
*318 wbs_adr_i[11]
*319 wbs_adr_i[12]
*320 wbs_adr_i[13]
*321 wbs_adr_i[14]
*322 wbs_adr_i[15]
*323 wbs_adr_i[16]
*324 wbs_adr_i[17]
*325 wbs_adr_i[18]
*326 wbs_adr_i[19]
*327 wbs_adr_i[1]
*328 wbs_adr_i[20]
*329 wbs_adr_i[21]
*330 wbs_adr_i[22]
*331 wbs_adr_i[23]
*332 wbs_adr_i[24]
*333 wbs_adr_i[25]
*334 wbs_adr_i[26]
*335 wbs_adr_i[27]
*336 wbs_adr_i[28]
*337 wbs_adr_i[29]
*338 wbs_adr_i[2]
*339 wbs_adr_i[30]
*340 wbs_adr_i[31]
*341 wbs_adr_i[3]
*342 wbs_adr_i[4]
*343 wbs_adr_i[5]
*344 wbs_adr_i[6]
*345 wbs_adr_i[7]
*346 wbs_adr_i[8]
*347 wbs_adr_i[9]
*348 wbs_cyc_i
*349 wbs_dat_i[0]
*350 wbs_dat_i[10]
*351 wbs_dat_i[11]
*352 wbs_dat_i[12]
*353 wbs_dat_i[13]
*354 wbs_dat_i[14]
*355 wbs_dat_i[15]
*356 wbs_dat_i[16]
*357 wbs_dat_i[17]
*358 wbs_dat_i[18]
*359 wbs_dat_i[19]
*360 wbs_dat_i[1]
*361 wbs_dat_i[20]
*362 wbs_dat_i[21]
*363 wbs_dat_i[22]
*364 wbs_dat_i[23]
*365 wbs_dat_i[24]
*366 wbs_dat_i[25]
*367 wbs_dat_i[26]
*368 wbs_dat_i[27]
*369 wbs_dat_i[28]
*370 wbs_dat_i[29]
*371 wbs_dat_i[2]
*372 wbs_dat_i[30]
*373 wbs_dat_i[31]
*374 wbs_dat_i[3]
*375 wbs_dat_i[4]
*376 wbs_dat_i[5]
*377 wbs_dat_i[6]
*378 wbs_dat_i[7]
*379 wbs_dat_i[8]
*380 wbs_dat_i[9]
*381 wbs_dat_o[0]
*382 wbs_dat_o[10]
*383 wbs_dat_o[11]
*384 wbs_dat_o[12]
*385 wbs_dat_o[13]
*386 wbs_dat_o[14]
*387 wbs_dat_o[15]
*388 wbs_dat_o[16]
*389 wbs_dat_o[17]
*390 wbs_dat_o[18]
*391 wbs_dat_o[19]
*392 wbs_dat_o[1]
*393 wbs_dat_o[20]
*394 wbs_dat_o[21]
*395 wbs_dat_o[22]
*396 wbs_dat_o[23]
*397 wbs_dat_o[24]
*398 wbs_dat_o[25]
*399 wbs_dat_o[26]
*400 wbs_dat_o[27]
*401 wbs_dat_o[28]
*402 wbs_dat_o[29]
*403 wbs_dat_o[2]
*404 wbs_dat_o[30]
*405 wbs_dat_o[31]
*406 wbs_dat_o[3]
*407 wbs_dat_o[4]
*408 wbs_dat_o[5]
*409 wbs_dat_o[6]
*410 wbs_dat_o[7]
*411 wbs_dat_o[8]
*412 wbs_dat_o[9]
*413 wbs_sel_i[0]
*414 wbs_sel_i[1]
*415 wbs_sel_i[2]
*416 wbs_sel_i[3]
*417 wbs_stb_i
*418 wbs_we_i
*419 wrapped_as2650

*PORTS
io_in[0] I
io_in[10] I
io_in[11] I
io_in[12] I
io_in[13] I
io_in[14] I
io_in[15] I
io_in[16] I
io_in[17] I
io_in[18] I
io_in[19] I
io_in[1] I
io_in[20] I
io_in[21] I
io_in[22] I
io_in[23] I
io_in[24] I
io_in[25] I
io_in[26] I
io_in[27] I
io_in[28] I
io_in[29] I
io_in[2] I
io_in[30] I
io_in[31] I
io_in[32] I
io_in[33] I
io_in[34] I
io_in[35] I
io_in[36] I
io_in[37] I
io_in[3] I
io_in[4] I
io_in[5] I
io_in[6] I
io_in[7] I
io_in[8] I
io_in[9] I
io_oeb[0] O
io_oeb[10] O
io_oeb[11] O
io_oeb[12] O
io_oeb[13] O
io_oeb[14] O
io_oeb[15] O
io_oeb[16] O
io_oeb[17] O
io_oeb[18] O
io_oeb[19] O
io_oeb[1] O
io_oeb[20] O
io_oeb[21] O
io_oeb[22] O
io_oeb[23] O
io_oeb[24] O
io_oeb[25] O
io_oeb[26] O
io_oeb[27] O
io_oeb[28] O
io_oeb[29] O
io_oeb[2] O
io_oeb[30] O
io_oeb[31] O
io_oeb[32] O
io_oeb[33] O
io_oeb[34] O
io_oeb[35] O
io_oeb[36] O
io_oeb[37] O
io_oeb[3] O
io_oeb[4] O
io_oeb[5] O
io_oeb[6] O
io_oeb[7] O
io_oeb[8] O
io_oeb[9] O
io_out[0] O
io_out[10] O
io_out[11] O
io_out[12] O
io_out[13] O
io_out[14] O
io_out[15] O
io_out[16] O
io_out[17] O
io_out[18] O
io_out[19] O
io_out[1] O
io_out[20] O
io_out[21] O
io_out[22] O
io_out[23] O
io_out[24] O
io_out[25] O
io_out[26] O
io_out[27] O
io_out[28] O
io_out[29] O
io_out[2] O
io_out[30] O
io_out[31] O
io_out[32] O
io_out[33] O
io_out[34] O
io_out[35] O
io_out[36] O
io_out[37] O
io_out[3] O
io_out[4] O
io_out[5] O
io_out[6] O
io_out[7] O
io_out[8] O
io_out[9] O
la_data_in[0] I
la_data_in[10] I
la_data_in[11] I
la_data_in[12] I
la_data_in[13] I
la_data_in[14] I
la_data_in[15] I
la_data_in[16] I
la_data_in[17] I
la_data_in[18] I
la_data_in[19] I
la_data_in[1] I
la_data_in[20] I
la_data_in[21] I
la_data_in[22] I
la_data_in[23] I
la_data_in[24] I
la_data_in[25] I
la_data_in[26] I
la_data_in[27] I
la_data_in[28] I
la_data_in[29] I
la_data_in[2] I
la_data_in[30] I
la_data_in[31] I
la_data_in[32] I
la_data_in[33] I
la_data_in[34] I
la_data_in[35] I
la_data_in[36] I
la_data_in[37] I
la_data_in[38] I
la_data_in[39] I
la_data_in[3] I
la_data_in[40] I
la_data_in[41] I
la_data_in[42] I
la_data_in[43] I
la_data_in[44] I
la_data_in[45] I
la_data_in[46] I
la_data_in[47] I
la_data_in[48] I
la_data_in[49] I
la_data_in[4] I
la_data_in[50] I
la_data_in[51] I
la_data_in[52] I
la_data_in[53] I
la_data_in[54] I
la_data_in[55] I
la_data_in[56] I
la_data_in[57] I
la_data_in[58] I
la_data_in[59] I
la_data_in[5] I
la_data_in[60] I
la_data_in[61] I
la_data_in[62] I
la_data_in[63] I
la_data_in[6] I
la_data_in[7] I
la_data_in[8] I
la_data_in[9] I
la_data_out[0] O
la_data_out[10] O
la_data_out[11] O
la_data_out[12] O
la_data_out[13] O
la_data_out[14] O
la_data_out[15] O
la_data_out[16] O
la_data_out[17] O
la_data_out[18] O
la_data_out[19] O
la_data_out[1] O
la_data_out[20] O
la_data_out[21] O
la_data_out[22] O
la_data_out[23] O
la_data_out[24] O
la_data_out[25] O
la_data_out[26] O
la_data_out[27] O
la_data_out[28] O
la_data_out[29] O
la_data_out[2] O
la_data_out[30] O
la_data_out[31] O
la_data_out[32] O
la_data_out[33] O
la_data_out[34] O
la_data_out[35] O
la_data_out[36] O
la_data_out[37] O
la_data_out[38] O
la_data_out[39] O
la_data_out[3] O
la_data_out[40] O
la_data_out[41] O
la_data_out[42] O
la_data_out[43] O
la_data_out[44] O
la_data_out[45] O
la_data_out[46] O
la_data_out[47] O
la_data_out[48] O
la_data_out[49] O
la_data_out[4] O
la_data_out[50] O
la_data_out[51] O
la_data_out[52] O
la_data_out[53] O
la_data_out[54] O
la_data_out[55] O
la_data_out[56] O
la_data_out[57] O
la_data_out[58] O
la_data_out[59] O
la_data_out[5] O
la_data_out[60] O
la_data_out[61] O
la_data_out[62] O
la_data_out[63] O
la_data_out[6] O
la_data_out[7] O
la_data_out[8] O
la_data_out[9] O
la_oenb[0] I
la_oenb[10] I
la_oenb[11] I
la_oenb[12] I
la_oenb[13] I
la_oenb[14] I
la_oenb[15] I
la_oenb[16] I
la_oenb[17] I
la_oenb[18] I
la_oenb[19] I
la_oenb[1] I
la_oenb[20] I
la_oenb[21] I
la_oenb[22] I
la_oenb[23] I
la_oenb[24] I
la_oenb[25] I
la_oenb[26] I
la_oenb[27] I
la_oenb[28] I
la_oenb[29] I
la_oenb[2] I
la_oenb[30] I
la_oenb[31] I
la_oenb[32] I
la_oenb[33] I
la_oenb[34] I
la_oenb[35] I
la_oenb[36] I
la_oenb[37] I
la_oenb[38] I
la_oenb[39] I
la_oenb[3] I
la_oenb[40] I
la_oenb[41] I
la_oenb[42] I
la_oenb[43] I
la_oenb[44] I
la_oenb[45] I
la_oenb[46] I
la_oenb[47] I
la_oenb[48] I
la_oenb[49] I
la_oenb[4] I
la_oenb[50] I
la_oenb[51] I
la_oenb[52] I
la_oenb[53] I
la_oenb[54] I
la_oenb[55] I
la_oenb[56] I
la_oenb[57] I
la_oenb[58] I
la_oenb[59] I
la_oenb[5] I
la_oenb[60] I
la_oenb[61] I
la_oenb[62] I
la_oenb[63] I
la_oenb[6] I
la_oenb[7] I
la_oenb[8] I
la_oenb[9] I
user_clock2 I
user_irq[0] O
user_irq[1] O
user_irq[2] O
wb_clk_i I
wb_rst_i I
wbs_ack_o O
wbs_adr_i[0] I
wbs_adr_i[10] I
wbs_adr_i[11] I
wbs_adr_i[12] I
wbs_adr_i[13] I
wbs_adr_i[14] I
wbs_adr_i[15] I
wbs_adr_i[16] I
wbs_adr_i[17] I
wbs_adr_i[18] I
wbs_adr_i[19] I
wbs_adr_i[1] I
wbs_adr_i[20] I
wbs_adr_i[21] I
wbs_adr_i[22] I
wbs_adr_i[23] I
wbs_adr_i[24] I
wbs_adr_i[25] I
wbs_adr_i[26] I
wbs_adr_i[27] I
wbs_adr_i[28] I
wbs_adr_i[29] I
wbs_adr_i[2] I
wbs_adr_i[30] I
wbs_adr_i[31] I
wbs_adr_i[3] I
wbs_adr_i[4] I
wbs_adr_i[5] I
wbs_adr_i[6] I
wbs_adr_i[7] I
wbs_adr_i[8] I
wbs_adr_i[9] I
wbs_cyc_i I
wbs_dat_i[0] I
wbs_dat_i[10] I
wbs_dat_i[11] I
wbs_dat_i[12] I
wbs_dat_i[13] I
wbs_dat_i[14] I
wbs_dat_i[15] I
wbs_dat_i[16] I
wbs_dat_i[17] I
wbs_dat_i[18] I
wbs_dat_i[19] I
wbs_dat_i[1] I
wbs_dat_i[20] I
wbs_dat_i[21] I
wbs_dat_i[22] I
wbs_dat_i[23] I
wbs_dat_i[24] I
wbs_dat_i[25] I
wbs_dat_i[26] I
wbs_dat_i[27] I
wbs_dat_i[28] I
wbs_dat_i[29] I
wbs_dat_i[2] I
wbs_dat_i[30] I
wbs_dat_i[31] I
wbs_dat_i[3] I
wbs_dat_i[4] I
wbs_dat_i[5] I
wbs_dat_i[6] I
wbs_dat_i[7] I
wbs_dat_i[8] I
wbs_dat_i[9] I
wbs_dat_o[0] O
wbs_dat_o[10] O
wbs_dat_o[11] O
wbs_dat_o[12] O
wbs_dat_o[13] O
wbs_dat_o[14] O
wbs_dat_o[15] O
wbs_dat_o[16] O
wbs_dat_o[17] O
wbs_dat_o[18] O
wbs_dat_o[19] O
wbs_dat_o[1] O
wbs_dat_o[20] O
wbs_dat_o[21] O
wbs_dat_o[22] O
wbs_dat_o[23] O
wbs_dat_o[24] O
wbs_dat_o[25] O
wbs_dat_o[26] O
wbs_dat_o[27] O
wbs_dat_o[28] O
wbs_dat_o[29] O
wbs_dat_o[2] O
wbs_dat_o[30] O
wbs_dat_o[31] O
wbs_dat_o[3] O
wbs_dat_o[4] O
wbs_dat_o[5] O
wbs_dat_o[6] O
wbs_dat_o[7] O
wbs_dat_o[8] O
wbs_dat_o[9] O
wbs_sel_i[0] I
wbs_sel_i[1] I
wbs_sel_i[2] I
wbs_sel_i[3] I
wbs_stb_i I
wbs_we_i I

*D_NET *1 0.499356
*CONN
*P io_in[0] I
*I *419:io_in[0] I *D wrapped_as2650
*CAP
1 io_in[0] 0.00466579
2 *419:io_in[0] 0.00023556
3 *1:12 0.0540808
4 *1:11 0.0538452
5 *1:9 0.0692184
6 *1:7 0.0738841
7 *1:9 *314:8 0
8 *1:12 *50:8 0.243426
*RES
1 io_in[0] *1:7 37.305 
2 *1:7 *1:9 542.7 
3 *1:9 *1:11 4.5 
4 *1:11 *1:12 724.05 
5 *1:12 *419:io_in[0] 1.845 
*END

*D_NET *2 0.296797
*CONN
*P io_in[10] I
*I *419:io_in[10] I *D wrapped_as2650
*CAP
1 io_in[10] 0.000311289
2 *419:io_in[10] 0.000217557
3 *2:11 0.0403219
4 *2:10 0.0401044
5 *2:8 6.9505e-05
6 *2:7 0.000380794
7 *2:8 *37:8 0.0347619
8 *2:8 *61:13 0.0347538
9 *2:11 *20:13 0.0515674
10 *2:11 *30:15 0.0787157
11 *2:11 *40:5 0
12 *2:11 *69:10 0.00197903
13 *2:11 *70:5 0
14 *2:11 *76:8 0.00749799
15 *2:11 *106:10 0.00611579
*RES
1 io_in[10] *2:7 6.705 
2 *2:7 *2:8 88.47 
3 *2:8 *2:10 4.5 
4 *2:10 *2:11 499.77 
5 *2:11 *419:io_in[10] 5.985 
*END

*D_NET *3 0.198615
*CONN
*P io_in[11] I
*I *419:io_in[11] I *D wrapped_as2650
*CAP
1 io_in[11] 0.000363112
2 *419:io_in[11] 0.00037339
3 *3:19 0.0155964
4 *3:18 0.0189698
5 *3:13 0.0479216
6 *3:11 0.044538
7 *419:io_in[11] *41:9 0
8 *3:18 *31:16 0
9 *3:18 *68:11 0
10 *3:19 *24:19 0.0576292
11 *3:19 *58:8 0
12 *3:19 *76:8 0.0132233
13 *3:19 *105:10 0
*RES
1 io_in[11] *3:11 3.195 
2 *3:11 *3:13 278.37 
3 *3:13 *3:18 36.99 
4 *3:18 *3:19 216.09 
5 *3:19 *419:io_in[11] 6.705 
*END

*D_NET *4 0.155999
*CONN
*P io_in[12] I
*I *419:io_in[12] I *D wrapped_as2650
*CAP
1 io_in[12] 0.000167227
2 *419:io_in[12] 0.00599521
3 *4:19 0.0118907
4 *4:18 0.00599441
5 *4:13 0.0528311
6 *4:11 0.0528995
7 *419:io_in[12] *79:7 0
8 *4:13 *43:8 0
9 *4:18 *15:15 0.000516648
10 *4:18 *16:11 0
11 *4:19 *43:8 0.0257043
12 *4:19 *102:10 0
*RES
1 io_in[12] *4:11 2.115 
2 *4:11 *4:13 412.11 
3 *4:13 *4:18 10.35 
4 *4:18 *4:19 75.51 
5 *4:19 *419:io_in[12] 43.155 
*END

*D_NET *5 0.211602
*CONN
*P io_in[13] I
*I *419:io_in[13] I *D wrapped_as2650
*CAP
1 io_in[13] 0.000488137
2 *419:io_in[13] 0.00142331
3 *5:11 0.0517841
4 *5:10 0.0503608
5 *5:8 0.0010973
6 *5:7 0.00158543
7 *419:io_in[13] *87:11 0.00175626
8 *5:8 *6:8 0.000472264
9 *5:8 *7:11 0.0365966
10 *5:8 *39:17 0.00211601
11 *5:8 *43:11 0.0260673
12 *5:11 *17:21 0.013281
13 *5:11 *23:11 0
14 *5:11 *25:15 0.0166431
15 *5:11 *49:10 0.00255107
16 *5:11 *71:8 0.0053789
17 *5:11 *88:8 0
18 *5:11 *97:8 0
*RES
1 io_in[13] *5:7 8.325 
2 *5:7 *5:8 93.33 
3 *5:8 *5:10 4.5 
4 *5:10 *5:11 475.47 
5 *5:11 *419:io_in[13] 15.165 
*END

*D_NET *6 0.206035
*CONN
*P io_in[14] I
*I *419:io_in[14] I *D wrapped_as2650
*CAP
1 io_in[14] 0.000661499
2 *419:io_in[14] 0.00585764
3 *6:11 0.0609225
4 *6:10 0.0550649
5 *6:8 0.00912633
6 *6:7 0.00978783
7 *419:io_in[14] *44:13 0
8 *419:io_in[14] *81:16 0
9 *6:8 *7:11 0.00249159
10 *6:8 *43:11 0.0427711
11 *6:11 *48:10 0.0112424
12 *6:11 *99:10 0.00763666
13 *6:11 *102:10 0
14 *5:8 *6:8 0.000472264
*RES
1 io_in[14] *6:7 8.685 
2 *6:7 *6:8 132.75 
3 *6:8 *6:10 4.5 
4 *6:10 *6:11 469.71 
5 *6:11 *419:io_in[14] 41.895 
*END

*D_NET *7 0.219149
*CONN
*P io_in[15] I
*I *419:io_in[15] I *D wrapped_as2650
*CAP
1 io_in[15] 0.00281871
2 *419:io_in[15] 0.00133462
3 *7:14 0.0548496
4 *7:13 0.0535149
5 *7:11 0.0161865
6 *7:10 0.0190053
7 *419:io_in[15] *45:9 0
8 *7:11 *32:8 0.00591313
9 *7:11 *36:8 0.000232719
10 *7:11 *39:17 0.000310677
11 *7:11 *43:11 0.00753363
12 *7:14 *419:io_in[23] 0.00182019
13 *7:14 *21:19 0.0106457
14 *7:14 *22:19 0.000684397
15 *7:14 *26:19 0.00156553
16 *7:14 *34:11 0
17 *7:14 *46:10 0.00330926
18 *7:14 *65:8 0.000335994
19 *7:14 *88:8 0
20 *5:8 *7:11 0.0365966
21 *6:8 *7:11 0.00249159
*RES
1 io_in[15] *7:10 31.635 
2 *7:10 *7:11 204.75 
3 *7:11 *7:13 4.5 
4 *7:13 *7:14 460.53 
5 *7:14 *419:io_in[15] 12.465 
*END

*D_NET *8 0.146277
*CONN
*P io_in[16] I
*I *419:io_in[16] I *D wrapped_as2650
*CAP
1 io_in[16] 0.000247817
2 *419:io_in[16] 0.000166616
3 *8:19 0.00831648
4 *8:18 0.00814986
5 *8:16 0.0427735
6 *8:15 0.0427735
7 *8:13 0.0218005
8 *8:11 0.0220483
9 *8:19 *83:10 0
10 *8:19 *83:11 0
*RES
1 io_in[16] *8:11 2.655 
2 *8:11 *8:13 167.67 
3 *8:13 *8:15 4.5 
4 *8:15 *8:16 332.19 
5 *8:16 *8:18 4.5 
6 *8:18 *8:19 53.91 
7 *8:19 *419:io_in[16] 1.305 
*END

*D_NET *9 0.116799
*CONN
*P io_in[17] I
*I *419:io_in[17] I *D wrapped_as2650
*CAP
1 io_in[17] 0.0013584
2 *419:io_in[17] 9.76714e-05
3 *9:17 0.0097016
4 *9:16 0.00960393
5 *9:14 0.0279682
6 *9:13 0.0279682
7 *9:11 0.0192802
8 *9:10 0.0206386
9 *9:10 *46:14 0.000181847
*RES
1 io_in[17] *9:10 19.935 
2 *9:10 *9:11 148.05 
3 *9:11 *9:13 4.5 
4 *9:13 *9:14 217.35 
5 *9:14 *9:16 4.5 
6 *9:16 *9:17 64.71 
7 *9:17 *419:io_in[17] 0.765 
*END

*D_NET *10 0.105007
*CONN
*P io_in[18] I
*I *419:io_in[18] I *D wrapped_as2650
*CAP
1 io_in[18] 0.00109084
2 *419:io_in[18] 0.00238889
3 *10:19 0.00781315
4 *10:14 0.01099
5 *10:11 0.0268119
6 *10:10 0.0212461
7 *10:8 0.00421017
8 *10:7 0.00530101
9 *10:8 *46:14 0.0251546
*RES
1 io_in[18] *10:7 12.825 
2 *10:7 *10:8 63.09 
3 *10:8 *10:10 4.5 
4 *10:10 *10:11 162.09 
5 *10:11 *10:14 46.35 
6 *10:14 *10:19 41.31 
7 *10:19 *419:io_in[18] 14.715 
*END

*D_NET *11 0.0628897
*CONN
*P io_in[19] I
*I *419:io_in[19] I *D wrapped_as2650
*CAP
1 io_in[19] 0.0021795
2 *419:io_in[19] 0.00272124
3 *11:11 0.0292654
4 *11:10 0.0287236
5 *419:io_in[19] *86:7 0
6 *11:10 *16:8 0
7 *11:11 *49:11 0
*RES
1 io_in[19] *11:10 25.695 
2 *11:10 *11:11 197.1 
3 *11:11 *419:io_in[19] 17.055 
*END

*D_NET *12 0.731098
*CONN
*P io_in[1] I
*I *419:io_in[1] I *D wrapped_as2650
*CAP
1 io_in[1] 0.000492522
2 *419:io_in[1] 0
3 *12:11 0.0211365
4 *12:10 0.0211365
5 *12:8 0.0191877
6 *12:7 0.0196803
7 *12:8 *32:8 0.0625126
8 *12:8 *39:17 0.259447
9 *12:11 *419:io_in[37] 0.00827144
10 *12:11 *20:13 0
11 *12:11 *27:11 0.0980121
12 *12:11 *50:7 0.00105703
13 *12:11 *70:5 0.220165
*RES
1 io_in[1] *12:7 8.505 
2 *12:7 *12:8 659.97 
3 *12:8 *12:10 4.5 
4 *12:10 *12:11 566.01 
5 *12:11 *419:io_in[1] 4.5 
*END

*D_NET *13 0.0929829
*CONN
*P io_in[20] I
*I *419:io_in[20] I *D wrapped_as2650
*CAP
1 io_in[20] 0.0251664
2 *419:io_in[20] 0.00492321
3 *13:8 0.0183688
4 *13:7 0.0134456
5 *13:5 0.0251664
6 *419:io_in[20] *17:16 0
7 *419:io_in[20] *51:13 0.00017208
8 *419:io_in[20] *87:7 0
9 *13:8 *64:10 0
10 *13:8 *100:14 0
11 *13:8 *113:14 0.000236895
12 *13:8 *114:14 0.00550345
*RES
1 io_in[20] *13:5 191.925 
2 *13:5 *13:7 4.5 
3 *13:7 *13:8 121.59 
4 *13:8 *419:io_in[20] 36.135 
*END

*D_NET *14 0.121164
*CONN
*P io_in[21] I
*I *419:io_in[21] I *D wrapped_as2650
*CAP
1 io_in[21] 0.00133604
2 *419:io_in[21] 0.000166616
3 *14:17 0.0239068
4 *14:16 0.0237402
5 *14:14 0.0299697
6 *14:13 0.035212
7 *14:10 0.00657831
8 *14:10 *16:8 0.000254726
9 *14:17 *19:14 0
*RES
1 io_in[21] *14:10 19.935 
2 *14:10 *14:13 44.55 
3 *14:13 *14:14 233.73 
4 *14:14 *14:16 4.5 
5 *14:16 *14:17 172.71 
6 *14:17 *419:io_in[21] 1.305 
*END

*D_NET *15 0.150889
*CONN
*P io_in[22] I
*I *419:io_in[22] I *D wrapped_as2650
*CAP
1 io_in[22] 0.00485065
2 *419:io_in[22] 9.76714e-05
3 *15:15 0.00852879
4 *15:14 0.00843112
5 *15:12 0.0450781
6 *15:11 0.0450781
7 *15:9 0.0167288
8 *15:7 0.0215795
9 *15:15 *16:11 0
10 *15:15 *48:11 0
11 *15:15 *90:7 0
12 *4:18 *15:15 0.000516648
*RES
1 io_in[22] *15:7 37.305 
2 *15:7 *15:9 128.34 
3 *15:9 *15:11 4.5 
4 *15:11 *15:12 351.09 
5 *15:12 *15:14 4.5 
6 *15:14 *15:15 56.61 
7 *15:15 *419:io_in[22] 0.765 
*END

*D_NET *16 0.196387
*CONN
*P io_in[23] I
*I *419:io_in[23] I *D wrapped_as2650
*CAP
1 io_in[23] 0.00107486
2 *419:io_in[23] 0.00134081
3 *16:11 0.0291238
4 *16:10 0.027783
5 *16:8 0.0522309
6 *16:7 0.0533057
7 *419:io_in[23] *21:19 0.00393445
8 *16:8 *46:14 0.0129832
9 *16:8 *49:14 0.0125354
10 *4:18 *16:11 0
11 *7:14 *419:io_in[23] 0.00182019
12 *11:10 *16:8 0
13 *14:10 *16:8 0.000254726
14 *15:15 *16:11 0
*RES
1 io_in[23] *16:7 12.825 
2 *16:7 *16:8 455.13 
3 *16:8 *16:10 4.5 
4 *16:10 *16:11 205.65 
5 *16:11 *419:io_in[23] 26.415 
*END

*D_NET *17 0.241793
*CONN
*P io_in[24] I
*I *419:io_in[24] I *D wrapped_as2650
*CAP
1 io_in[24] 0.000201168
2 *419:io_in[24] 0.00195141
3 *17:21 0.00431753
4 *17:16 0.0288121
5 *17:15 0.026446
6 *17:13 0.0832914
7 *17:11 0.0834925
8 *419:io_in[24] *55:9 0
9 *17:13 *83:14 0
10 *17:21 *97:8 0
11 *419:io_in[20] *17:16 0
12 *5:11 *17:21 0.013281
*RES
1 io_in[24] *17:11 1.935 
2 *17:11 *17:13 527.31 
3 *17:13 *17:15 4.5 
4 *17:15 *17:16 195.75 
5 *17:16 *17:21 42.57 
6 *17:21 *419:io_in[24] 10.845 
*END

*D_NET *18 0.218359
*CONN
*P io_in[25] I
*I *419:io_in[25] I *D wrapped_as2650
*CAP
1 io_in[25] 0.000125876
2 *419:io_in[25] 0.00261104
3 *18:16 0.0194455
4 *18:15 0.0168344
5 *18:13 0.0896083
6 *18:11 0.0897342
*RES
1 io_in[25] *18:11 1.395 
2 *18:11 *18:13 566.55 
3 *18:13 *18:15 4.5 
4 *18:15 *18:16 124.38 
5 *18:16 *419:io_in[25] 16.695 
*END

*D_NET *19 0.168987
*CONN
*P io_in[26] I
*I *419:io_in[26] I *D wrapped_as2650
*CAP
1 io_in[26] 0.00177706
2 *419:io_in[26] 0.00713271
3 *19:17 0.012304
4 *19:14 0.00868587
5 *19:9 0.0704125
6 *19:7 0.068675
7 *19:9 *53:10 0
8 *19:17 *95:10 0
9 *14:17 *19:14 0
*RES
1 io_in[26] *19:7 13.185 
2 *19:7 *19:9 522.54 
3 *19:9 *19:14 34.83 
4 *19:14 *19:17 43.83 
5 *19:17 *419:io_in[26] 47.115 
*END

*D_NET *20 0.191565
*CONN
*P io_in[27] I
*I *419:io_in[27] I *D wrapped_as2650
*CAP
1 io_in[27] 0.00035683
2 *419:io_in[27] 0.000178599
3 *20:13 0.060339
4 *20:11 0.0605172
5 *20:13 *30:15 0.0186063
6 *20:13 *40:5 0
7 *20:13 *50:7 0
8 *20:13 *70:5 0
9 *20:13 *77:7 0
10 *2:11 *20:13 0.0515674
11 *12:11 *20:13 0
*RES
1 io_in[27] *20:11 3.015 
2 *20:11 *20:13 583.47 
3 *20:13 *419:io_in[27] 5.805 
*END

*D_NET *21 0.239709
*CONN
*P io_in[28] I
*I *419:io_in[28] I *D wrapped_as2650
*CAP
1 io_in[28] 0.000249598
2 *419:io_in[28] 0.00114469
3 *21:19 0.010823
4 *21:18 0.00967829
5 *21:16 0.00978305
6 *21:15 0.00978305
7 *21:13 0.0483504
8 *21:11 0.0486
9 *21:16 *50:8 0
10 *21:16 *77:8 0
11 *21:19 *22:19 0.0851766
12 *21:19 *80:10 0.00154043
13 *419:io_in[23] *21:19 0.00393445
14 *7:14 *21:19 0.0106457
*RES
1 io_in[28] *21:11 2.475 
2 *21:11 *21:13 376.11 
3 *21:13 *21:15 4.5 
4 *21:15 *21:16 73.71 
5 *21:16 *21:18 4.5 
6 *21:18 *21:19 215.01 
7 *21:19 *419:io_in[28] 11.925 
*END

*D_NET *22 0.313966
*CONN
*P io_in[29] I
*I *419:io_in[29] I *D wrapped_as2650
*CAP
1 io_in[29] 0.000177869
2 *419:io_in[29] 0.00110573
3 *22:19 0.00281487
4 *22:18 0.00170913
5 *22:16 0.0184604
6 *22:15 0.0184604
7 *22:13 0.0479542
8 *22:11 0.048132
9 *22:16 *77:8 0
10 *22:19 *26:19 0.0892907
11 *7:14 *22:19 0.000684397
12 *21:19 *22:19 0.0851766
*RES
1 io_in[29] *22:11 1.935 
2 *22:11 *22:13 373.41 
3 *22:13 *22:15 4.5 
4 *22:15 *22:16 141.03 
5 *22:16 *22:18 4.5 
6 *22:18 *22:19 225.27 
7 *22:19 *419:io_in[29] 11.745 
*END

*D_NET *23 0.658936
*CONN
*P io_in[2] I
*I *419:io_in[2] I *D wrapped_as2650
*CAP
1 io_in[2] 0.00023383
2 *419:io_in[2] 0.00187245
3 *23:11 0.0271709
4 *23:10 0.0252984
5 *23:8 0.0425905
6 *23:7 0.0428243
7 *23:8 *61:13 0.22262
8 *23:11 *35:11 0.210834
9 *23:11 *67:8 0.00551499
10 *23:11 *97:8 0.0799766
11 *5:11 *23:11 0
*RES
1 io_in[2] *23:7 6.345 
2 *23:7 *23:8 609.03 
3 *23:8 *23:10 4.5 
4 *23:10 *23:11 560.61 
5 *23:11 *419:io_in[2] 16.785 
*END

*D_NET *24 0.30301
*CONN
*P io_in[30] I
*I *419:io_in[30] I *D wrapped_as2650
*CAP
1 io_in[30] 0.000113196
2 *419:io_in[30] 0.000318455
3 *24:19 0.00693872
4 *24:18 0.00662027
5 *24:16 0.024966
6 *24:15 0.024966
7 *24:13 0.0475703
8 *24:11 0.0476835
9 *419:io_in[30] *62:13 0
10 *24:16 *96:13 0.00878015
11 *24:19 *30:15 0.0147223
12 *24:19 *76:8 0.0627013
13 *3:19 *24:19 0.0576292
*RES
1 io_in[30] *24:11 1.395 
2 *24:11 *24:13 370.71 
3 *24:13 *24:15 4.5 
4 *24:15 *24:16 203.31 
5 *24:16 *24:18 4.5 
6 *24:18 *24:19 235.53 
7 *24:19 *419:io_in[30] 6.525 
*END

*D_NET *25 0.303036
*CONN
*P io_in[31] I
*I *419:io_in[31] I *D wrapped_as2650
*CAP
1 io_in[31] 0.00179421
2 *419:io_in[31] 0.00152131
3 *25:15 0.0121844
4 *25:14 0.0106631
5 *25:12 0.0363611
6 *25:11 0.0363611
7 *25:9 0.0454415
8 *25:7 0.0472357
9 *419:io_in[31] *63:9 0
10 *25:15 *60:8 0.0925478
11 *25:15 *71:8 0.00228301
12 *5:11 *25:15 0.0166431
*RES
1 io_in[31] *25:7 13.185 
2 *25:7 *25:9 355.14 
3 *25:9 *25:11 4.5 
4 *25:11 *25:12 278.91 
5 *25:12 *25:14 4.5 
6 *25:14 *25:15 245.79 
7 *25:15 *419:io_in[31] 14.625 
*END

*D_NET *26 0.38433
*CONN
*P io_in[32] I
*I *419:io_in[32] I *D wrapped_as2650
*CAP
1 io_in[32] 0.000323383
2 *419:io_in[32] 0.00105079
3 *26:19 0.00382159
4 *26:18 0.00277081
5 *26:16 0.0449995
6 *26:15 0.0449995
7 *26:13 0.0468339
8 *26:11 0.0471573
9 *26:19 *65:8 0.101517
10 *7:14 *26:19 0.00156553
11 *22:19 *26:19 0.0892907
*RES
1 io_in[32] *26:11 3.015 
2 *26:11 *26:13 365.31 
3 *26:13 *26:15 4.5 
4 *26:15 *26:16 346.05 
5 *26:16 *26:18 4.5 
6 *26:18 *26:19 256.05 
7 *26:19 *419:io_in[32] 11.565 
*END

*D_NET *27 0.334636
*CONN
*P io_in[33] I
*I *419:io_in[33] I *D wrapped_as2650
*CAP
1 io_in[33] 0.00117627
2 *419:io_in[33] 0
3 *27:11 0.0624612
4 *27:10 0.0624612
5 *27:8 0.0525054
6 *27:7 0.0536817
7 *27:11 *50:7 0.000462627
8 *27:11 *77:7 0.00387523
9 *12:11 *27:11 0.0980121
*RES
1 io_in[33] *27:7 13.365 
2 *27:7 *27:8 403.65 
3 *27:8 *27:10 4.5 
4 *27:10 *27:11 620.01 
5 *27:11 *419:io_in[33] 4.5 
*END

*D_NET *28 0.415519
*CONN
*P io_in[34] I
*I *419:io_in[34] I *D wrapped_as2650
*CAP
1 io_in[34] 0.000177869
2 *419:io_in[34] 0.00253053
3 *28:19 0.00907872
4 *28:18 0.00654819
5 *28:16 0.0636271
6 *28:15 0.0636271
7 *28:13 0.0464034
8 *28:11 0.0465812
9 *419:io_in[34] *66:13 0
10 *419:io_in[34] *103:13 0
11 *28:19 *61:10 0.0944631
12 *28:19 *63:10 0.00625383
13 *28:19 *75:8 0.0762276
*RES
1 io_in[34] *28:11 1.935 
2 *28:11 *28:13 362.61 
3 *28:13 *28:15 4.5 
4 *28:15 *28:16 489.15 
5 *28:16 *28:18 4.5 
6 *28:18 *28:19 271.71 
7 *28:19 *419:io_in[34] 22.095 
*END

*D_NET *29 0.447351
*CONN
*P io_in[35] I
*I *419:io_in[35] I *D wrapped_as2650
*CAP
1 io_in[35] 0.000113196
2 *419:io_in[35] 0.00138847
3 *29:19 0.0052032
4 *29:18 0.00381473
5 *29:16 0.0715511
6 *29:15 0.0715511
7 *29:13 0.0460195
8 *29:11 0.0461327
9 *29:19 *60:8 0.0096018
10 *29:19 *71:8 0.0919758
11 *29:19 *88:8 0.099999
*RES
1 io_in[35] *29:11 1.395 
2 *29:11 *29:13 359.91 
3 *29:13 *29:15 4.5 
4 *29:15 *29:16 551.07 
5 *29:16 *29:18 4.5 
6 *29:18 *29:19 284.13 
7 *29:19 *419:io_in[35] 14.085 
*END

*D_NET *30 0.4476
*CONN
*P io_in[36] I
*I *419:io_in[36] I *D wrapped_as2650
*CAP
1 io_in[36] 0.00177706
2 *419:io_in[36] 0.000240538
3 *30:15 0.00294845
4 *30:14 0.00270791
5 *30:12 0.0791958
6 *30:11 0.0791958
7 *30:9 0.043483
8 *30:7 0.0452601
9 *30:15 *76:8 0.0807466
10 *2:11 *30:15 0.0787157
11 *20:13 *30:15 0.0186063
12 *24:19 *30:15 0.0147223
*RES
1 io_in[36] *30:7 13.185 
2 *30:7 *30:9 341.64 
3 *30:9 *30:11 4.5 
4 *30:11 *30:12 610.65 
5 *30:12 *30:14 4.5 
6 *30:14 *30:15 297.09 
7 *30:15 *419:io_in[36] 6.165 
*END

*D_NET *31 0.361322
*CONN
*P io_in[37] I
*I *419:io_in[37] I *D wrapped_as2650
*CAP
1 io_in[37] 0.000323383
2 *419:io_in[37] 0.00150031
3 *31:16 0.0893651
4 *31:15 0.0878647
5 *31:13 0.0868371
6 *31:11 0.0871605
7 *3:18 *31:16 0
8 *12:11 *419:io_in[37] 0.00827144
*RES
1 io_in[37] *31:11 3.015 
2 *31:11 *31:13 679.95 
3 *31:13 *31:15 4.5 
4 *31:15 *31:16 678.51 
5 *31:16 *419:io_in[37] 29.97 
*END

*D_NET *32 0.654145
*CONN
*P io_in[3] I
*I *419:io_in[3] I *D wrapped_as2650
*CAP
1 io_in[3] 0.000462178
2 *419:io_in[3] 0.00345571
3 *32:11 0.0311309
4 *32:10 0.0276752
5 *32:8 0.0144417
6 *32:7 0.0149039
7 *32:8 *33:8 0.00310219
8 *32:8 *36:8 0.000335986
9 *32:8 *39:17 0.00064901
10 *32:8 *61:13 0
11 *32:8 *70:8 0.192691
12 *32:11 *39:14 0.207536
13 *32:11 *104:14 0.0893359
14 *7:11 *32:8 0.00591313
15 *12:8 *32:8 0.0625126
*RES
1 io_in[3] *32:7 7.965 
2 *32:7 *32:8 556.11 
3 *32:8 *32:10 4.5 
4 *32:10 *32:11 551.61 
5 *32:11 *419:io_in[3] 27.945 
*END

*D_NET *33 0.577318
*CONN
*P io_in[4] I
*I *419:io_in[4] I *D wrapped_as2650
*CAP
1 io_in[4] 0.000510061
2 *419:io_in[4] 0.00293941
3 *33:11 0.0546369
4 *33:10 0.0516975
5 *33:8 0.00398657
6 *33:7 0.00449663
7 *419:io_in[4] *108:13 0
8 *33:8 *34:8 0.162028
9 *33:8 *35:8 0.00100901
10 *33:8 *36:8 0.000578383
11 *33:8 *61:13 0.0018203
12 *33:8 *70:8 0.184331
13 *33:11 io_oeb[11] 0