*SPEF "ieee 1481-1999"
*DESIGN "user_project_wrapper"
*DATE "11:11:11 Fri 11 11, 1111"
*VENDOR "OpenRCX"
*PROGRAM "Parallel Extraction"
*VERSION "1.0"
*DESIGN_FLOW "NAME_SCOPE LOCAL" "PIN_CAP NONE"
*DIVIDER /
*DELIMITER :
*BUS_DELIMITER []
*T_UNIT 1 NS
*C_UNIT 1 PF
*R_UNIT 1 OHM
*L_UNIT 1 HENRY

*NAME_MAP
*1 io_in[0]
*2 io_in[10]
*3 io_in[11]
*4 io_in[12]
*5 io_in[13]
*6 io_in[14]
*7 io_in[15]
*8 io_in[16]
*9 io_in[17]
*10 io_in[18]
*11 io_in[19]
*12 io_in[1]
*13 io_in[20]
*14 io_in[21]
*15 io_in[22]
*16 io_in[23]
*17 io_in[24]
*18 io_in[25]
*19 io_in[26]
*20 io_in[27]
*21 io_in[28]
*22 io_in[29]
*23 io_in[2]
*24 io_in[30]
*25 io_in[31]
*26 io_in[32]
*27 io_in[33]
*28 io_in[34]
*29 io_in[35]
*30 io_in[36]
*31 io_in[37]
*32 io_in[3]
*33 io_in[4]
*34 io_in[5]
*35 io_in[6]
*36 io_in[7]
*37 io_in[8]
*38 io_in[9]
*39 io_oeb[0]
*40 io_oeb[10]
*41 io_oeb[11]
*42 io_oeb[12]
*43 io_oeb[13]
*44 io_oeb[14]
*45 io_oeb[15]
*46 io_oeb[16]
*47 io_oeb[17]
*48 io_oeb[18]
*49 io_oeb[19]
*50 io_oeb[1]
*51 io_oeb[20]
*52 io_oeb[21]
*53 io_oeb[22]
*54 io_oeb[23]
*55 io_oeb[24]
*56 io_oeb[25]
*57 io_oeb[26]
*58 io_oeb[27]
*59 io_oeb[28]
*60 io_oeb[29]
*61 io_oeb[2]
*62 io_oeb[30]
*63 io_oeb[31]
*64 io_oeb[32]
*65 io_oeb[33]
*66 io_oeb[34]
*67 io_oeb[35]
*68 io_oeb[36]
*69 io_oeb[37]
*70 io_oeb[3]
*71 io_oeb[4]
*72 io_oeb[5]
*73 io_oeb[6]
*74 io_oeb[7]
*75 io_oeb[8]
*76 io_oeb[9]
*77 io_out[0]
*78 io_out[10]
*79 io_out[11]
*80 io_out[12]
*81 io_out[13]
*82 io_out[14]
*83 io_out[15]
*84 io_out[16]
*85 io_out[17]
*86 io_out[18]
*87 io_out[19]
*88 io_out[1]
*89 io_out[20]
*90 io_out[21]
*91 io_out[22]
*92 io_out[23]
*93 io_out[24]
*94 io_out[25]
*95 io_out[26]
*96 io_out[27]
*97 io_out[28]
*98 io_out[29]
*99 io_out[2]
*100 io_out[30]
*101 io_out[31]
*102 io_out[32]
*103 io_out[33]
*104 io_out[34]
*105 io_out[35]
*106 io_out[36]
*107 io_out[37]
*108 io_out[3]
*109 io_out[4]
*110 io_out[5]
*111 io_out[6]
*112 io_out[7]
*113 io_out[8]
*114 io_out[9]
*115 la_data_in[0]
*116 la_data_in[10]
*117 la_data_in[11]
*118 la_data_in[12]
*119 la_data_in[13]
*120 la_data_in[14]
*121 la_data_in[15]
*122 la_data_in[16]
*123 la_data_in[17]
*124 la_data_in[18]
*125 la_data_in[19]
*126 la_data_in[1]
*127 la_data_in[20]
*128 la_data_in[21]
*129 la_data_in[22]
*130 la_data_in[23]
*131 la_data_in[24]
*132 la_data_in[25]
*133 la_data_in[26]
*134 la_data_in[27]
*135 la_data_in[28]
*136 la_data_in[29]
*137 la_data_in[2]
*138 la_data_in[30]
*139 la_data_in[31]
*140 la_data_in[32]
*141 la_data_in[33]
*142 la_data_in[34]
*143 la_data_in[35]
*144 la_data_in[36]
*145 la_data_in[37]
*146 la_data_in[38]
*147 la_data_in[39]
*148 la_data_in[3]
*149 la_data_in[40]
*150 la_data_in[41]
*151 la_data_in[42]
*152 la_data_in[43]
*153 la_data_in[44]
*154 la_data_in[45]
*155 la_data_in[46]
*156 la_data_in[47]
*157 la_data_in[48]
*158 la_data_in[49]
*159 la_data_in[4]
*160 la_data_in[50]
*161 la_data_in[51]
*162 la_data_in[52]
*163 la_data_in[53]
*164 la_data_in[54]
*165 la_data_in[55]
*166 la_data_in[56]
*167 la_data_in[57]
*168 la_data_in[58]
*169 la_data_in[59]
*170 la_data_in[5]
*171 la_data_in[60]
*172 la_data_in[61]
*173 la_data_in[62]
*174 la_data_in[63]
*175 la_data_in[6]
*176 la_data_in[7]
*177 la_data_in[8]
*178 la_data_in[9]
*179 la_data_out[0]
*180 la_data_out[10]
*181 la_data_out[11]
*182 la_data_out[12]
*183 la_data_out[13]
*184 la_data_out[14]
*185 la_data_out[15]
*186 la_data_out[16]
*187 la_data_out[17]
*188 la_data_out[18]
*189 la_data_out[19]
*190 la_data_out[1]
*191 la_data_out[20]
*192 la_data_out[21]
*193 la_data_out[22]
*194 la_data_out[23]
*195 la_data_out[24]
*196 la_data_out[25]
*197 la_data_out[26]
*198 la_data_out[27]
*199 la_data_out[28]
*200 la_data_out[29]
*201 la_data_out[2]
*202 la_data_out[30]
*203 la_data_out[31]
*204 la_data_out[32]
*205 la_data_out[33]
*206 la_data_out[34]
*207 la_data_out[35]
*208 la_data_out[36]
*209 la_data_out[37]
*210 la_data_out[38]
*211 la_data_out[39]
*212 la_data_out[3]
*213 la_data_out[40]
*214 la_data_out[41]
*215 la_data_out[42]
*216 la_data_out[43]
*217 la_data_out[44]
*218 la_data_out[45]
*219 la_data_out[46]
*220 la_data_out[47]
*221 la_data_out[48]
*222 la_data_out[49]
*223 la_data_out[4]
*224 la_data_out[50]
*225 la_data_out[51]
*226 la_data_out[52]
*227 la_data_out[53]
*228 la_data_out[54]
*229 la_data_out[55]
*230 la_data_out[56]
*231 la_data_out[57]
*232 la_data_out[58]
*233 la_data_out[59]
*234 la_data_out[5]
*235 la_data_out[60]
*236 la_data_out[61]
*237 la_data_out[62]
*238 la_data_out[63]
*239 la_data_out[6]
*240 la_data_out[7]
*241 la_data_out[8]
*242 la_data_out[9]
*243 la_oenb[0]
*244 la_oenb[10]
*245 la_oenb[11]
*246 la_oenb[12]
*247 la_oenb[13]
*248 la_oenb[14]
*249 la_oenb[15]
*250 la_oenb[16]
*251 la_oenb[17]
*252 la_oenb[18]
*253 la_oenb[19]
*254 la_oenb[1]
*255 la_oenb[20]
*256 la_oenb[21]
*257 la_oenb[22]
*258 la_oenb[23]
*259 la_oenb[24]
*260 la_oenb[25]
*261 la_oenb[26]
*262 la_oenb[27]
*263 la_oenb[28]
*264 la_oenb[29]
*265 la_oenb[2]
*266 la_oenb[30]
*267 la_oenb[31]
*268 la_oenb[32]
*269 la_oenb[33]
*270 la_oenb[34]
*271 la_oenb[35]
*272 la_oenb[36]
*273 la_oenb[37]
*274 la_oenb[38]
*275 la_oenb[39]
*276 la_oenb[3]
*277 la_oenb[40]
*278 la_oenb[41]
*279 la_oenb[42]
*280 la_oenb[43]
*281 la_oenb[44]
*282 la_oenb[45]
*283 la_oenb[46]
*284 la_oenb[47]
*285 la_oenb[48]
*286 la_oenb[49]
*287 la_oenb[4]
*288 la_oenb[50]
*289 la_oenb[51]
*290 la_oenb[52]
*291 la_oenb[53]
*292 la_oenb[54]
*293 la_oenb[55]
*294 la_oenb[56]
*295 la_oenb[57]
*296 la_oenb[58]
*297 la_oenb[59]
*298 la_oenb[5]
*299 la_oenb[60]
*300 la_oenb[61]
*301 la_oenb[62]
*302 la_oenb[63]
*303 la_oenb[6]
*304 la_oenb[7]
*305 la_oenb[8]
*306 la_oenb[9]
*307 user_clock2
*308 user_irq[0]
*309 user_irq[1]
*310 user_irq[2]
*313 wb_clk_i
*314 wb_rst_i
*315 wbs_ack_o
*316 wbs_adr_i[0]
*317 wbs_adr_i[10]
*318 wbs_adr_i[11]
*319 wbs_adr_i[12]
*320 wbs_adr_i[13]
*321 wbs_adr_i[14]
*322 wbs_adr_i[15]
*323 wbs_adr_i[16]
*324 wbs_adr_i[17]
*325 wbs_adr_i[18]
*326 wbs_adr_i[19]
*327 wbs_adr_i[1]
*328 wbs_adr_i[20]
*329 wbs_adr_i[21]
*330 wbs_adr_i[22]
*331 wbs_adr_i[23]
*332 wbs_adr_i[24]
*333 wbs_adr_i[25]
*334 wbs_adr_i[26]
*335 wbs_adr_i[27]
*336 wbs_adr_i[28]
*337 wbs_adr_i[29]
*338 wbs_adr_i[2]
*339 wbs_adr_i[30]
*340 wbs_adr_i[31]
*341 wbs_adr_i[3]
*342 wbs_adr_i[4]
*343 wbs_adr_i[5]
*344 wbs_adr_i[6]
*345 wbs_adr_i[7]
*346 wbs_adr_i[8]
*347 wbs_adr_i[9]
*348 wbs_cyc_i
*349 wbs_dat_i[0]
*350 wbs_dat_i[10]
*351 wbs_dat_i[11]
*352 wbs_dat_i[12]
*353 wbs_dat_i[13]
*354 wbs_dat_i[14]
*355 wbs_dat_i[15]
*356 wbs_dat_i[16]
*357 wbs_dat_i[17]
*358 wbs_dat_i[18]
*359 wbs_dat_i[19]
*360 wbs_dat_i[1]
*361 wbs_dat_i[20]
*362 wbs_dat_i[21]
*363 wbs_dat_i[22]
*364 wbs_dat_i[23]
*365 wbs_dat_i[24]
*366 wbs_dat_i[25]
*367 wbs_dat_i[26]
*368 wbs_dat_i[27]
*369 wbs_dat_i[28]
*370 wbs_dat_i[29]
*371 wbs_dat_i[2]
*372 wbs_dat_i[30]
*373 wbs_dat_i[31]
*374 wbs_dat_i[3]
*375 wbs_dat_i[4]
*376 wbs_dat_i[5]
*377 wbs_dat_i[6]
*378 wbs_dat_i[7]
*379 wbs_dat_i[8]
*380 wbs_dat_i[9]
*381 wbs_dat_o[0]
*382 wbs_dat_o[10]
*383 wbs_dat_o[11]
*384 wbs_dat_o[12]
*385 wbs_dat_o[13]
*386 wbs_dat_o[14]
*387 wbs_dat_o[15]
*388 wbs_dat_o[16]
*389 wbs_dat_o[17]
*390 wbs_dat_o[18]
*391 wbs_dat_o[19]
*392 wbs_dat_o[1]
*393 wbs_dat_o[20]
*394 wbs_dat_o[21]
*395 wbs_dat_o[22]
*396 wbs_dat_o[23]
*397 wbs_dat_o[24]
*398 wbs_dat_o[25]
*399 wbs_dat_o[26]
*400 wbs_dat_o[27]
*401 wbs_dat_o[28]
*402 wbs_dat_o[29]
*403 wbs_dat_o[2]
*404 wbs_dat_o[30]
*405 wbs_dat_o[31]
*406 wbs_dat_o[3]
*407 wbs_dat_o[4]
*408 wbs_dat_o[5]
*409 wbs_dat_o[6]
*410 wbs_dat_o[7]
*411 wbs_dat_o[8]
*412 wbs_dat_o[9]
*413 wbs_sel_i[0]
*414 wbs_sel_i[1]
*415 wbs_sel_i[2]
*416 wbs_sel_i[3]
*417 wbs_stb_i
*418 wbs_we_i
*419 A_all\[0\]
*420 A_all\[1\]
*421 A_all\[2\]
*422 A_all\[3\]
*423 A_all\[4\]
*424 A_all\[5\]
*425 A_all\[6\]
*426 A_all\[7\]
*427 A_all\[8\]
*428 CEN_all
*429 DAC_clk
*430 DAC_d1
*431 DAC_d2
*432 DAC_le
*433 D_all\[0\]
*434 D_all\[1\]
*435 D_all\[2\]
*436 D_all\[3\]
*437 D_all\[4\]
*438 D_all\[5\]
*439 D_all\[6\]
*440 D_all\[7\]
*441 GWEN_0
*442 GWEN_1
*443 GWEN_2
*444 GWEN_3
*445 GWEN_4
*446 GWEN_5
*447 GWEN_6
*448 GWEN_7
*449 Q0\[0\]
*450 Q0\[1\]
*451 Q0\[2\]
*452 Q0\[3\]
*453 Q0\[4\]
*454 Q0\[5\]
*455 Q0\[6\]
*456 Q0\[7\]
*457 Q1\[0\]
*458 Q1\[1\]
*459 Q1\[2\]
*460 Q1\[3\]
*461 Q1\[4\]
*462 Q1\[5\]
*463 Q1\[6\]
*464 Q1\[7\]
*465 Q2\[0\]
*466 Q2\[1\]
*467 Q2\[2\]
*468 Q2\[3\]
*469 Q2\[4\]
*470 Q2\[5\]
*471 Q2\[6\]
*472 Q2\[7\]
*473 Q3\[0\]
*474 Q3\[1\]
*475 Q3\[2\]
*476 Q3\[3\]
*477 Q3\[4\]
*478 Q3\[5\]
*479 Q3\[6\]
*480 Q3\[7\]
*481 Q4\[0\]
*482 Q4\[1\]
*483 Q4\[2\]
*484 Q4\[3\]
*485 Q4\[4\]
*486 Q4\[5\]
*487 Q4\[6\]
*488 Q4\[7\]
*489 Q5\[0\]
*490 Q5\[1\]
*491 Q5\[2\]
*492 Q5\[3\]
*493 Q5\[4\]
*494 Q5\[5\]
*495 Q5\[6\]
*496 Q5\[7\]
*497 Q6\[0\]
*498 Q6\[1\]
*499 Q6\[2\]
*500 Q6\[3\]
*501 Q6\[4\]
*502 Q6\[5\]
*503 Q6\[6\]
*504 Q6\[7\]
*505 Q7\[0\]
*506 Q7\[1\]
*507 Q7\[2\]
*508 Q7\[3\]
*509 Q7\[4\]
*510 Q7\[5\]
*511 Q7\[6\]
*512 Q7\[7\]
*513 RAM_end_addr\[0\]
*514 RAM_end_addr\[10\]
*515 RAM_end_addr\[11\]
*516 RAM_end_addr\[12\]
*517 RAM_end_addr\[13\]
*518 RAM_end_addr\[14\]
*519 RAM_end_addr\[15\]
*520 RAM_end_addr\[1\]
*521 RAM_end_addr\[2\]
*522 RAM_end_addr\[3\]
*523 RAM_end_addr\[4\]
*524 RAM_end_addr\[5\]
*525 RAM_end_addr\[6\]
*526 RAM_end_addr\[7\]
*527 RAM_end_addr\[8\]
*528 RAM_end_addr\[9\]
*529 RAM_start_addr\[0\]
*530 RAM_start_addr\[10\]
*531 RAM_start_addr\[11\]
*532 RAM_start_addr\[12\]
*533 RAM_start_addr\[13\]
*534 RAM_start_addr\[14\]
*535 RAM_start_addr\[15\]
*536 RAM_start_addr\[1\]
*537 RAM_start_addr\[2\]
*538 RAM_start_addr\[3\]
*539 RAM_start_addr\[4\]
*540 RAM_start_addr\[5\]
*541 RAM_start_addr\[6\]
*542 RAM_start_addr\[7\]
*543 RAM_start_addr\[8\]
*544 RAM_start_addr\[9\]
*545 RXD
*546 TXD
*547 WEN_all\[0\]
*548 WEN_all\[1\]
*549 WEN_all\[2\]
*550 WEN_all\[3\]
*551 WEN_all\[4\]
*552 WEN_all\[5\]
*553 WEN_all\[6\]
*554 WEN_all\[7\]
*555 WEb_ram
*556 boot_rom_en
*557 bus_addr\[0\]
*558 bus_addr\[1\]
*559 bus_addr\[2\]
*560 bus_addr\[3\]
*561 bus_addr\[4\]
*562 bus_addr\[5\]
*563 bus_cyc
*564 bus_data_gpios\[0\]
*565 bus_data_gpios\[1\]
*566 bus_data_gpios\[2\]
*567 bus_data_gpios\[3\]
*568 bus_data_gpios\[4\]
*569 bus_data_gpios\[5\]
*570 bus_data_gpios\[6\]
*571 bus_data_gpios\[7\]
*572 bus_data_out\[0\]
*573 bus_data_out\[1\]
*574 bus_data_out\[2\]
*575 bus_data_out\[3\]
*576 bus_data_out\[4\]
*577 bus_data_out\[5\]
*578 bus_data_out\[6\]
*579 bus_data_out\[7\]
*580 bus_data_serial_ports\[0\]
*581 bus_data_serial_ports\[1\]
*582 bus_data_serial_ports\[2\]
*583 bus_data_serial_ports\[3\]
*584 bus_data_serial_ports\[4\]
*585 bus_data_serial_ports\[5\]
*586 bus_data_serial_ports\[6\]
*587 bus_data_serial_ports\[7\]
*588 bus_data_sid\[0\]
*589 bus_data_sid\[1\]
*590 bus_data_sid\[2\]
*591 bus_data_sid\[3\]
*592 bus_data_sid\[4\]
*593 bus_data_sid\[5\]
*594 bus_data_sid\[6\]
*595 bus_data_sid\[7\]
*596 bus_data_timers\[0\]
*597 bus_data_timers\[1\]
*598 bus_data_timers\[2\]
*599 bus_data_timers\[3\]
*600 bus_data_timers\[4\]
*601 bus_data_timers\[5\]
*602 bus_data_timers\[6\]
*603 bus_data_timers\[7\]
*604 bus_we_gpios
*605 bus_we_serial_ports
*606 bus_we_sid
*607 bus_we_timers
*608 cs_port\[0\]
*609 cs_port\[1\]
*610 cs_port\[2\]
*611 irq0
*612 irq1
*613 irq2
*614 irq3
*615 irq5
*616 irq6
*617 irq7
*618 last_addr\[0\]
*619 last_addr\[10\]
*620 last_addr\[11\]
*621 last_addr\[12\]
*622 last_addr\[13\]
*623 last_addr\[14\]
*624 last_addr\[15\]
*625 last_addr\[1\]
*626 last_addr\[2\]
*627 last_addr\[3\]
*628 last_addr\[4\]
*629 last_addr\[5\]
*630 last_addr\[6\]
*631 last_addr\[7\]
*632 last_addr\[8\]
*633 last_addr\[9\]
*634 le_hi_act
*635 le_lo_act
*636 pwm0
*637 pwm1
*638 pwm2
*639 ram_bus_in\[0\]
*640 ram_bus_in\[1\]
*641 ram_bus_in\[2\]
*642 ram_bus_in\[3\]
*643 ram_bus_in\[4\]
*644 ram_bus_in\[5\]
*645 ram_bus_in\[6\]
*646 ram_bus_in\[7\]
*647 ram_enabled
*648 requested_addr\[0\]
*649 requested_addr\[10\]
*650 requested_addr\[11\]
*651 requested_addr\[12\]
*652 requested_addr\[13\]
*653 requested_addr\[14\]
*654 requested_addr\[15\]
*655 requested_addr\[1\]
*656 requested_addr\[2\]
*657 requested_addr\[3\]
*658 requested_addr\[4\]
*659 requested_addr\[5\]
*660 requested_addr\[6\]
*661 requested_addr\[7\]
*662 requested_addr\[8\]
*663 requested_addr\[9\]
*664 reset
*665 rom_bus_in\[0\]
*666 rom_bus_in\[1\]
*667 rom_bus_in\[2\]
*668 rom_bus_in\[3\]
*669 rom_bus_in\[4\]
*670 rom_bus_in\[5\]
*671 rom_bus_in\[6\]
*672 rom_bus_in\[7\]
*673 rom_bus_out\[0\]
*674 rom_bus_out\[1\]
*675 rom_bus_out\[2\]
*676 rom_bus_out\[3\]
*677 rom_bus_out\[4\]
*678 rom_bus_out\[5\]
*679 rom_bus_out\[6\]
*680 rom_bus_out\[7\]
*681 tmr0_clk
*682 tmr0_o
*683 tmr1_clk
*684 tmr1_o
*685 avali_logo
*686 boot_rom
*687 gpios
*688 ram_controller
*689 serial_ports
*690 sid
*691 sram0
*692 sram1
*693 sram2
*694 sram3
*695 sram4
*696 sram5
*697 sram6
*698 sram7
*699 timers
*700 wrapped_as2650

*PORTS
io_in[0] I
io_in[10] I
io_in[11] I
io_in[12] I
io_in[13] I
io_in[14] I
io_in[15] I
io_in[16] I
io_in[17] I
io_in[18] I
io_in[19] I
io_in[1] I
io_in[20] I
io_in[21] I
io_in[22] I
io_in[23] I
io_in[24] I
io_in[25] I
io_in[26] I
io_in[27] I
io_in[28] I
io_in[29] I
io_in[2] I
io_in[30] I
io_in[31] I
io_in[32] I
io_in[33] I
io_in[34] I
io_in[35] I
io_in[36] I
io_in[37] I
io_in[3] I
io_in[4] I
io_in[5] I
io_in[6] I
io_in[7] I
io_in[8] I
io_in[9] I
io_oeb[0] O
io_oeb[10] O
io_oeb[11] O
io_oeb[12] O
io_oeb[13] O
io_oeb[14] O
io_oeb[15] O
io_oeb[16] O
io_oeb[17] O
io_oeb[18] O
io_oeb[19] O
io_oeb[1] O
io_oeb[20] O
io_oeb[21] O
io_oeb[22] O
io_oeb[23] O
io_oeb[24] O
io_oeb[25] O
io_oeb[26] O
io_oeb[27] O
io_oeb[28] O
io_oeb[29] O
io_oeb[2] O
io_oeb[30] O
io_oeb[31] O
io_oeb[32] O
io_oeb[33] O
io_oeb[34] O
io_oeb[35] O
io_oeb[36] O
io_oeb[37] O
io_oeb[3] O
io_oeb[4] O
io_oeb[5] O
io_oeb[6] O
io_oeb[7] O
io_oeb[8] O
io_oeb[9] O
io_out[0] O
io_out[10] O
io_out[11] O
io_out[12] O
io_out[13] O
io_out[14] O
io_out[15] O
io_out[16] O
io_out[17] O
io_out[18] O
io_out[19] O
io_out[1] O
io_out[20] O
io_out[21] O
io_out[22] O
io_out[23] O
io_out[24] O
io_out[25] O
io_out[26] O
io_out[27] O
io_out[28] O
io_out[29] O
io_out[2] O
io_out[30] O
io_out[31] O
io_out[32] O
io_out[33] O
io_out[34] O
io_out[35] O
io_out[36] O
io_out[37] O
io_out[3] O
io_out[4] O
io_out[5] O
io_out[6] O
io_out[7] O
io_out[8] O
io_out[9] O
la_data_in[0] I
la_data_in[10] I
la_data_in[11] I
la_data_in[12] I
la_data_in[13] I
la_data_in[14] I
la_data_in[15] I
la_data_in[16] I
la_data_in[17] I
la_data_in[18] I
la_data_in[19] I
la_data_in[1] I
la_data_in[20] I
la_data_in[21] I
la_data_in[22] I
la_data_in[23] I
la_data_in[24] I
la_data_in[25] I
la_data_in[26] I
la_data_in[27] I
la_data_in[28] I
la_data_in[29] I
la_data_in[2] I
la_data_in[30] I
la_data_in[31] I
la_data_in[32] I
la_data_in[33] I
la_data_in[34] I
la_data_in[35] I
la_data_in[36] I
la_data_in[37] I
la_data_in[38] I
la_data_in[39] I
la_data_in[3] I
la_data_in[40] I
la_data_in[41] I
la_data_in[42] I
la_data_in[43] I
la_data_in[44] I
la_data_in[45] I
la_data_in[46] I
la_data_in[47] I
la_data_in[48] I
la_data_in[49] I
la_data_in[4] I
la_data_in[50] I
la_data_in[51] I
la_data_in[52] I
la_data_in[53] I
la_data_in[54] I
la_data_in[55] I
la_data_in[56] I
la_data_in[57] I
la_data_in[58] I
la_data_in[59] I
la_data_in[5] I
la_data_in[60] I
la_data_in[61] I
la_data_in[62] I
la_data_in[63] I
la_data_in[6] I
la_data_in[7] I
la_data_in[8] I
la_data_in[9] I
la_data_out[0] O
la_data_out[10] O
la_data_out[11] O
la_data_out[12] O
la_data_out[13] O
la_data_out[14] O
la_data_out[15] O
la_data_out[16] O
la_data_out[17] O
la_data_out[18] O
la_data_out[19] O
la_data_out[1] O
la_data_out[20] O
la_data_out[21] O
la_data_out[22] O
la_data_out[23] O
la_data_out[24] O
la_data_out[25] O
la_data_out[26] O
la_data_out[27] O
la_data_out[28] O
la_data_out[29] O
la_data_out[2] O
la_data_out[30] O
la_data_out[31] O
la_data_out[32] O
la_data_out[33] O
la_data_out[34] O
la_data_out[35] O
la_data_out[36] O
la_data_out[37] O
la_data_out[38] O
la_data_out[39] O
la_data_out[3] O
la_data_out[40] O
la_data_out[41] O
la_data_out[42] O
la_data_out[43] O
la_data_out[44] O
la_data_out[45] O
la_data_out[46] O
la_data_out[47] O
la_data_out[48] O
la_data_out[49] O
la_data_out[4] O
la_data_out[50] O
la_data_out[51] O
la_data_out[52] O
la_data_out[53] O
la_data_out[54] O
la_data_out[55] O
la_data_out[56] O
la_data_out[57] O
la_data_out[58] O
la_data_out[59] O
la_data_out[5] O
la_data_out[60] O
la_data_out[61] O
la_data_out[62] O
la_data_out[63] O
la_data_out[6] O
la_data_out[7] O
la_data_out[8] O
la_data_out[9] O
la_oenb[0] I
la_oenb[10] I
la_oenb[11] I
la_oenb[12] I
la_oenb[13] I
la_oenb[14] I
la_oenb[15] I
la_oenb[16] I
la_oenb[17] I
la_oenb[18] I
la_oenb[19] I
la_oenb[1] I
la_oenb[20] I
la_oenb[21] I
la_oenb[22] I
la_oenb[23] I
la_oenb[24] I
la_oenb[25] I
la_oenb[26] I
la_oenb[27] I
la_oenb[28] I
la_oenb[29] I
la_oenb[2] I
la_oenb[30] I
la_oenb[31] I
la_oenb[32] I
la_oenb[33] I
la_oenb[34] I
la_oenb[35] I
la_oenb[36] I
la_oenb[37] I
la_oenb[38] I
la_oenb[39] I
la_oenb[3] I
la_oenb[40] I
la_oenb[41] I
la_oenb[42] I
la_oenb[43] I
la_oenb[44] I
la_oenb[45] I
la_oenb[46] I
la_oenb[47] I
la_oenb[48] I
la_oenb[49] I
la_oenb[4] I
la_oenb[50] I
la_oenb[51] I
la_oenb[52] I
la_oenb[53] I
la_oenb[54] I
la_oenb[55] I
la_oenb[56] I
la_oenb[57] I
la_oenb[58] I
la_oenb[59] I
la_oenb[5] I
la_oenb[60] I
la_oenb[61] I
la_oenb[62] I
la_oenb[63] I
la_oenb[6] I
la_oenb[7] I
la_oenb[8] I
la_oenb[9] I
user_clock2 I
user_irq[0] O
user_irq[1] O
user_irq[2] O
wb_clk_i I
wb_rst_i I
wbs_ack_o O
wbs_adr_i[0] I
wbs_adr_i[10] I
wbs_adr_i[11] I
wbs_adr_i[12] I
wbs_adr_i[13] I
wbs_adr_i[14] I
wbs_adr_i[15] I
wbs_adr_i[16] I
wbs_adr_i[17] I
wbs_adr_i[18] I
wbs_adr_i[19] I
wbs_adr_i[1] I
wbs_adr_i[20] I
wbs_adr_i[21] I
wbs_adr_i[22] I
wbs_adr_i[23] I
wbs_adr_i[24] I
wbs_adr_i[25] I
wbs_adr_i[26] I
wbs_adr_i[27] I
wbs_adr_i[28] I
wbs_adr_i[29] I
wbs_adr_i[2] I
wbs_adr_i[30] I
wbs_adr_i[31] I
wbs_adr_i[3] I
wbs_adr_i[4] I
wbs_adr_i[5] I
wbs_adr_i[6] I
wbs_adr_i[7] I
wbs_adr_i[8] I
wbs_adr_i[9] I
wbs_cyc_i I
wbs_dat_i[0] I
wbs_dat_i[10] I
wbs_dat_i[11] I
wbs_dat_i[12] I
wbs_dat_i[13] I
wbs_dat_i[14] I
wbs_dat_i[15] I
wbs_dat_i[16] I
wbs_dat_i[17] I
wbs_dat_i[18] I
wbs_dat_i[19] I
wbs_dat_i[1] I
wbs_dat_i[20] I
wbs_dat_i[21] I
wbs_dat_i[22] I
wbs_dat_i[23] I
wbs_dat_i[24] I
wbs_dat_i[25] I
wbs_dat_i[26] I
wbs_dat_i[27] I
wbs_dat_i[28] I
wbs_dat_i[29] I
wbs_dat_i[2] I
wbs_dat_i[30] I
wbs_dat_i[31] I
wbs_dat_i[3] I
wbs_dat_i[4] I
wbs_dat_i[5] I
wbs_dat_i[6] I
wbs_dat_i[7] I
wbs_dat_i[8] I
wbs_dat_i[9] I
wbs_dat_o[0] O
wbs_dat_o[10] O
wbs_dat_o[11] O
wbs_dat_o[12] O
wbs_dat_o[13] O
wbs_dat_o[14] O
wbs_dat_o[15] O
wbs_dat_o[16] O
wbs_dat_o[17] O
wbs_dat_o[18] O
wbs_dat_o[19] O
wbs_dat_o[1] O
wbs_dat_o[20] O
wbs_dat_o[21] O
wbs_dat_o[22] O
wbs_dat_o[23] O
wbs_dat_o[24] O
wbs_dat_o[25] O
wbs_dat_o[26] O
wbs_dat_o[27] O
wbs_dat_o[28] O
wbs_dat_o[29] O
wbs_dat_o[2] O
wbs_dat_o[30] O
wbs_dat_o[31] O
wbs_dat_o[3] O
wbs_dat_o[4] O
wbs_dat_o[5] O
wbs_dat_o[6] O
wbs_dat_o[7] O
wbs_dat_o[8] O
wbs_dat_o[9] O
wbs_sel_i[0] I
wbs_sel_i[1] I
wbs_sel_i[2] I
wbs_sel_i[3] I
wbs_stb_i I
wbs_we_i I

*D_NET *1 0.691183
*CONN
*P io_in[0] I
*I *700:io_in[0] I *D wrapped_as2650
*CAP
1 io_in[0] 0.00617205
2 *700:io_in[0] 0.000251131
3 *1:17 0.0237654
4 *1:15 0.0235143
5 *1:13 0.0446319
6 *1:11 0.0446319
7 *1:9 0.0567821
8 *1:7 0.0567821
9 *1:5 0.00617205
10 *700:io_in[0] *33:17 0.000209526
11 *1:13 *33:13 0.323311
12 *1:13 *192:13 0.0475092
13 *1:13 *327:17 0.0132363
14 *1:13 *552:136 1.00751e-05
15 *1:17 *700:rom_bus_in[0] 3.70577e-05
16 *1:17 *700:rom_bus_in[2] 9.12008e-05
17 *1:17 *700:rom_bus_in[3] 9.12833e-05
18 *1:17 *33:17 0.00309995
19 *1:17 *40:6 0.020437
20 *1:17 *42:12 8.27423e-05
21 *1:17 *73:12 0.000605464
22 *1:17 *78:12 5.91016e-05
23 *1:17 *99:6 0.0115399
24 *1:17 *113:8 0.000851716
25 *1:17 *521:12 0.000130322
26 *1:17 *522:15 0.000110379
27 *1:17 *528:15 4.20243e-05
28 *1:17 *529:17 4.1064e-05
29 *1:17 *534:6 0.00208354
30 *1:17 *536:6 0.00275012
31 *1:17 *539:17 5.23433e-05
32 *1:17 *608:12 0.000195692
33 *1:17 *609:12 5.91016e-05
34 *1:17 *610:15 7.22041e-05
35 *1:17 *644:13 0.000703574
36 *1:17 *678:17 0.00106874
*RES
1 io_in[0] *1:5 48.825 
2 *1:5 *1:7 4.5 
3 *1:7 *1:9 435.87 
4 *1:9 *1:11 4.5 
5 *1:11 *1:13 811.17 
6 *1:13 *1:15 4.5 
7 *1:15 *1:17 241.65 
8 *1:17 *700:io_in[0] 11.475 
*END

*D_NET *2 0.557035
*CONN
*P io_in[10] I
*I *700:io_in[10] I *D wrapped_as2650
*CAP
1 io_in[10] 0.00268126
2 *700:io_in[10] 0.000539061
3 *2:21 0.00317332
4 *2:19 0.00263425
5 *2:17 0.00512866
6 *2:15 0.00512866
7 *2:13 0.122145
8 *2:11 0.124826
9 *2:11 *40:14 0.0040776
10 *2:11 *76:17 0.00174778
11 *2:13 *700:bus_in_gpios[7] 0.0180119
12 *2:17 *37:17 0.0282395
13 *2:21 *3:21 0
14 *2:21 *5:21 0.00181806
15 *2:21 *35:21 0.011178
16 *2:21 *38:29 0.121079
17 *2:21 *611:17 0.000811475
18 *2:21 *612:25 0.103816
*RES
1 io_in[10] *2:11 42.1682 
2 *2:11 *2:13 214.565 
3 *2:13 *2:15 4.5 
4 *2:15 *2:17 71.4632 
5 *2:17 *2:19 4.5 
6 *2:19 *2:21 302.49 
7 *2:21 *700:io_in[10] 7.965 
*END

*D_NET *3 0.404263
*CONN
*P io_in[11] I
*I *700:io_in[11] I *D wrapped_as2650
*CAP
1 io_in[11] 0.0238043
2 *700:io_in[11] 0.000741487
3 *3:21 0.0209954
4 *3:19 0.0202539
5 *3:17 0.00344946
6 *3:15 0.00344946
7 *3:13 0.00210096
8 *3:11 0.00210096
9 *3:9 0.000996877
10 *3:7 0.000996877
11 *3:5 0.0238043
12 *3:5 *90:9 0
13 *3:9 *19:25 2.02474e-05
14 *3:9 *21:25 0.0184543
15 *3:9 *42:30 0.00233783
16 *3:9 *612:13 0.0254713
17 *3:9 *613:13 0.00135632
18 *3:13 *19:21 0.0513135
19 *3:13 *20:21 0.00855977
20 *3:13 *96:14 0.113776
21 *3:13 *565:9 0.00325658
22 *3:13 *612:17 0
23 *3:17 *32:17 0
24 *3:17 *515:17 0.0159648
25 *3:17 *517:19 7.30111e-05
26 *3:17 *599:43 0.00235191
27 *3:21 *700:bus_in_timers[6] 0.000204631
28 *3:21 *700:io_in[17] 0.00445653
29 *3:21 *5:21 0.00210076
30 *3:21 *560:11 0.00015405
31 *3:21 *611:17 0.000342734
32 *3:21 *613:25 0.020315
33 *3:21 *617:22 0.0116479
34 *3:21 *626:9 0.000649905
35 *3:21 *627:9 0.000731875
36 *3:21 *664:13 0.0180303
37 *2:21 *3:21 0
*RES
1 io_in[11] *3:5 189.045 
2 *3:5 *3:7 4.5 
3 *3:7 *3:9 65.79 
4 *3:9 *3:11 4.5 
5 *3:11 *3:13 285.03 
6 *3:13 *3:15 4.5 
7 *3:15 *3:17 49.23 
8 *3:17 *3:19 4.5 
9 *3:19 *3:21 337.23 
10 *3:21 *700:io_in[11] 9.405 
*END

*D_NET *4 0.6663
*CONN
*P io_in[12] I
*I *700:io_in[12] I *D wrapped_as2650
*CAP
1 io_in[12] 0.00113612
2 *700:io_in[12] 0.000126594
3 *4:29 0.0025658
4 *4:27 0.00243921
5 *4:25 0.000400566
6 *4:21 0.0175645
7 *4:19 0.0171639
8 *4:17 0.00670912
9 *4:15 0.00670912
10 *4:13 0.00383644
11 *4:11 0.00383644
12 *4:9 0.00679977
13 *4:7 0.00793589
14 *4:9 *80:17 0.00464753
15 *4:13 *16:17 0
16 *4:13 *41:37 0.0723908
17 *4:13 *42:34 0.00688287
18 *4:13 *596:13 0.0478839
19 *4:13 *599:13 0.00108548
20 *4:17 *28:17 0
21 *4:17 *41:33 0.00597389
22 *4:17 *95:10 0.0162701
23 *4:17 *613:13 0.002437
24 *4:21 *560:25 0.130944
25 *4:21 *560:53 0.000664231
26 *4:21 *566:7 0.00034491
27 *4:21 *600:21 0
28 *4:25 *19:17 0.00162903
29 *4:25 *20:17 0.000502579
30 *4:25 *22:17 0.0161713
31 *4:25 *42:22 0.0154692
32 *4:29 *98:22 0.011477
33 *4:29 *517:13 0.000645634
34 *4:29 *555:9 0.0638643
35 *4:29 *607:9 1.64907e-05
36 *4:29 *618:9 0.0591366
37 *4:29 *629:9 0.0014369
38 *4:29 *666:25 0.129203
*RES
1 io_in[12] *4:7 12.825 
2 *4:7 *4:9 52.11 
3 *4:9 *4:11 4.5 
4 *4:11 *4:13 180.09 
5 *4:13 *4:15 4.5 
6 *4:15 *4:17 73.9704 
7 *4:17 *4:19 4.5 
8 *4:19 *4:21 122.7 
9 *4:21 *4:25 45.8904 
10 *4:25 *4:27 4.5 
11 *4:27 *4:29 329.49 
12 *4:29 *700:io_in[12] 5.085 
*END

*D_NET *5 0.762853
*CONN
*P io_in[13] I
*I *700:io_in[13] I *D wrapped_as2650
*CAP
1 io_in[13] 0.00111227
2 *700:io_in[13] 0.000688242
3 *5:21 0.0021903
4 *5:17 0.0252339
5 *5:15 0.0237319
6 *5:13 0.0129382
7 *5:11 0.0167694
8 *5:7 0.00494354
9 *5:11 io_oeb[13] 2.78151e-05
10 *5:11 io_out[13] 0.00794374
11 *5:13 *18:13 0.266487
12 *5:13 *43:21 0.371186
13 *5:13 *557:37 0.00184242
14 *5:13 *573:49 0.000362566
15 *5:17 *9:13 0.0108063
16 *5:21 *700:io_in[17] 0.00954552
17 *5:21 *37:21 0.00113907
18 *5:21 *611:17 0.00198598
19 *2:21 *5:21 0.00181806
20 *3:21 *5:21 0.00210076
*RES
1 io_in[13] *5:7 12.825 
2 *5:7 *5:11 45.1704 
3 *5:11 *5:13 319.489 
4 *5:13 *5:15 4.5 
5 *5:15 *5:17 185.57 
6 *5:17 *5:21 45.81 
7 *5:21 *700:io_in[13] 8.865 
*END

*D_NET *6 0.377336
*CONN
*P io_in[14] I
*I *700:io_in[14] I *D wrapped_as2650
*CAP
1 io_in[14] 0.0792278
2 *700:io_in[14] 0.00106503
3 *6:13 0.026309
4 *6:11 0.025244
5 *6:9 0.0137137
6 *6:7 0.0137137
7 *6:5 0.0792278
8 *6:9 *51:16 0.0805791
9 *6:13 *575:9 0.0500365
10 *6:13 *613:25 0
11 *6:13 *615:25 0.0082192
*RES
1 io_in[14] *6:5 507.645 
2 *6:5 *6:7 4.5 
3 *6:7 *6:9 205.65 
4 *6:9 *6:11 4.5 
5 *6:11 *6:13 290.61 
6 *6:13 *700:io_in[14] 11.565 
*END

*D_NET *7 0.30225
*CONN
*P io_in[15] I
*I *700:io_in[15] I *D wrapped_as2650
*CAP
1 io_in[15] 0.00121588
2 *700:io_in[15] 0.00215275
3 *7:23 0.031547
4 *7:21 0.0293942
5 *7:19 0.0308566
6 *7:17 0.0308566
7 *7:15 0.0524009
8 *7:13 0.0536168
9 *7:15 *10:9 0.00744468
10 *7:19 *546:13 0.00837198
11 *7:23 *572:9 0.0535893
12 *7:23 *585:13 0.000803208
*RES
1 io_in[15] *7:13 23.1204 
2 *7:13 *7:15 202.271 
3 *7:15 *7:17 4.5 
4 *7:17 *7:19 244.585 
5 *7:19 *7:21 4.5 
6 *7:21 *7:23 299.61 
7 *7:23 *700:io_in[15] 16.965 
*END

*D_NET *8 0.433292
*CONN
*P io_in[16] I
*I *700:io_in[16] I *D wrapped_as2650
*CAP
1 io_in[16] 0.000983416
2 *700:io_in[16] 0.0124777
3 *8:19 0.0124777
4 *8:17 0.0250819
5 *8:15 0.0250819
6 *8:13 0.015598
7 *8:11 0.015598
8 *8:9 0.0123151
9 *8:7 0.0132985
10 *8:9 *11:9 0.00276092
11 *8:9 *16:9 0.000366229
12 *8:9 *87:17 0.000571719
13 *8:9 *89:17 0.0964544
14 *8:9 *90:17 0.100869
15 *8:9 *91:17 0.000468966
16 *8:13 *559:27 0
17 *8:13 *579:29 0
18 *8:13 *591:13 0.0396844
19 *8:17 io_out[26] 0.0392099
20 *8:17 *562:17 0.0199939
*RES
1 io_in[16] *8:7 12.105 
2 *8:7 *8:9 351.27 
3 *8:9 *8:11 4.5 
4 *8:11 *8:13 165.51 
5 *8:13 *8:15 4.5 
6 *8:15 *8:17 314.37 
7 *8:17 *8:19 4.5 
8 *8:19 *700:io_in[16] 93.465 
*END

*D_NET *9 0.327996
*CONN
*P io_in[17] I
*I *700:io_in[17] I *D wrapped_as2650
*CAP
1 io_in[17] 0.00509881
2 *700:io_in[17] 0.000818566
3 *9:13 0.0301814
4 *9:11 0.0293628
5 *9:9 0.0447077
6 *9:7 0.0498065
7 *700:io_in[17] *37:21 0.000665167
8 *9:7 *87:13 0
9 *9:7 *93:13 0.000129614
10 *9:9 io_out[24] 0
11 *9:9 *48:13 0.14219
12 *9:13 *15:7 0.0002273
13 *3:21 *700:io_in[17] 0.00445653
14 *5:17 *9:13 0.0108063
15 *5:21 *700:io_in[17] 0.00954552
*RES
1 io_in[17] *9:7 42.525 
2 *9:7 *9:9 531.27 
3 *9:9 *9:11 4.5 
4 *9:11 *9:13 224.01 
5 *9:13 *700:io_in[17] 37.215 
*END

*D_NET *10 0.25924
*CONN
*P io_in[18] I
*I *700:io_in[18] I *D wrapped_as2650
*CAP
1 io_in[18] 0.00122605
2 *700:io_in[18] 0.0117879
3 *10:19 0.0117879
4 *10:17 0.0385229
5 *10:15 0.0385229
6 *10:13 0.0156393
7 *10:11 0.0156393
8 *10:9 0.00901561
9 *10:7 0.0102417
10 *10:9 *92:17 0.0566788
11 *10:13 *95:18 0.00235108
12 *10:13 *588:24 0.0403822
13 *7:15 *10:9 0.00744468
*RES
1 io_in[18] *10:7 13.005 
2 *10:7 *10:9 141.21 
3 *10:9 *10:11 4.5 
4 *10:11 *10:13 170.01 
5 *10:13 *10:15 4.5 
6 *10:15 *10:17 303.03 
7 *10:17 *10:19 4.5 
8 *10:19 *700:io_in[18] 88.065 
*END

*D_NET *11 0.250695
*CONN
*P io_in[19] I
*I *687:io_in[0] I *D gpios
*CAP
1 io_in[19] 0.000914436
2 *687:io_in[0] 0.00336796
3 *11:19 0.00563576
4 *11:13 0.0217273
5 *11:11 0.0194595
6 *11:9 0.0149119
7 *11:7 0.0158263
8 *11:9 *87:17 0.0847211
9 *11:13 *14:13 0.0699042
10 *11:19 *90:9 0.011466
11 *8:9 *11:9 0.00276092
*RES
1 io_in[19] *11:7 11.565 
2 *11:7 *11:9 232.11 
3 *11:9 *11:11 4.5 
4 *11:11 *11:13 236.07 
5 *11:13 *11:19 38.43 
6 *11:19 *687:io_in[0] 23.445 
*END

*D_NET *12 0.68469
*CONN
*P io_in[1] I
*I *700:io_in[1] I *D wrapped_as2650
*CAP
1 io_in[1] 0.00111245
2 *700:io_in[1] 0.00204424
3 *12:17 0.0344467
4 *12:15 0.0324024
5 *12:13 0.0562355
6 *12:11 0.0562355
7 *12:9 0.0275557
8 *12:7 0.0286681
9 *700:io_in[1] *700:io_in[2] 0.00176301
10 *700:io_in[1] *700:io_in[4] 0.00510983
11 *12:9 *23:9 0.0466541
12 *12:9 *33:9 0.0623456
13 *12:9 *50:17 0.0272697
14 *12:13 *103:23 0.257001
15 *12:13 *310:13 0.0319569
16 *12:17 *700:io_in[6] 0
17 *12:17 *78:16 0.0138887
*RES
1 io_in[1] *12:7 12.825 
2 *12:7 *12:9 349.83 
3 *12:9 *12:11 4.5 
4 *12:11 *12:13 826.29 
5 *12:13 *12:15 4.5 
6 *12:15 *12:17 269.19 
7 *12:17 *700:io_in[1] 32.355 
*END

*D_NET *13 0.305402
*CONN
*P io_in[20] I
*I *687:io_in[1] I *D gpios
*CAP
1 io_in[20] 0.00149303
2 *687:io_in[1] 0.00131286
3 *13:13 0.0216094
4 *13:11 0.0202966
5 *13:9 0.0225746
6 *13:7 0.0240677
7 *687:io_in[1] *687:io_in[12] 0.000135952
8 *687:io_in[1] *687:io_in[2] 0.0122594
9 *687:io_in[1] *15:17 0.0134152
10 *687:io_in[1] *94:17 0.000361931
11 *13:9 io_oeb[14] 0.0111327
12 *13:9 *47:13 0.0996355
13 *13:13 *52:13 0.077107
*RES
1 io_in[20] *13:7 15.345 
2 *13:7 *13:9 335.79 
3 *13:9 *13:11 4.5 
4 *13:11 *13:13 251.01 
5 *13:13 *687:io_in[1] 48.015 
*END

*D_NET *14 0.371091
*CONN
*P io_in[21] I
*I *687:io_in[2] I *D gpios
*CAP
1 io_in[21] 0.00871759
2 *687:io_in[2] 0.00334977
3 *14:13 0.0177353
4 *14:11 0.0143855
5 *14:9 0.0286093
6 *14:7 0.0286093
7 *14:5 0.00871759
8 *687:io_in[2] *687:io_in[12] 0.000192033
9 *687:io_in[2] *15:17 0.000400465
10 *687:io_in[2] *94:17 0.000503775
11 *14:9 *52:17 0.177707
12 *687:io_in[1] *687:io_in[2] 0.0122594
13 *11:13 *14:13 0.0699042
*RES
1 io_in[21] *14:5 64.845 
2 *14:5 *14:7 4.5 
3 *14:7 *14:9 445.41 
4 *14:9 *14:11 4.5 
5 *14:11 *14:13 196.83 
6 *14:13 *687:io_in[2] 47.475 
*END

*D_NET *15 0.294562
*CONN
*P io_in[22] I
*I *687:io_in[3] I *D gpios
*CAP
1 io_in[22] 0.00537701
2 *687:io_in[3] 0.000750775
3 *15:17 0.00140515
4 *15:13 0.0159513
5 *15:11 0.015297
6 *15:9 0.0682585
7 *15:7 0.0736355
8 *15:13 *53:13 0.0835334
9 *15:17 *687:io_in[12] 0.000146451
10 *15:17 *18:21 0.0161642
11 *687:io_in[1] *15:17 0.0134152
12 *687:io_in[2] *15:17 0.000400465
13 *9:13 *15:7 0.0002273
*RES
1 io_in[22] *15:7 45.225 
2 *15:7 *15:9 546.39 
3 *15:9 *15:11 4.5 
4 *15:11 *15:13 221.31 
5 *15:13 *15:17 45.63 
6 *15:17 *687:io_in[3] 9.045 
*END

*D_NET *16 0.64464
*CONN
*P io_in[23] I
*I *687:io_in[4] I *D gpios
*CAP