*SPEF "ieee 1481-1999"
*DESIGN "user_project_wrapper"
*DATE "11:11:11 Fri 11 11, 1111"
*VENDOR "OpenRCX"
*PROGRAM "Parallel Extraction"
*VERSION "1.0"
*DESIGN_FLOW "NAME_SCOPE LOCAL" "PIN_CAP NONE"
*DIVIDER /
*DELIMITER :
*BUS_DELIMITER []
*T_UNIT 1 NS
*C_UNIT 1 PF
*R_UNIT 1 OHM
*L_UNIT 1 HENRY

*NAME_MAP
*1 io_in[0]
*2 io_in[10]
*3 io_in[11]
*4 io_in[12]
*5 io_in[13]
*6 io_in[14]
*7 io_in[15]
*8 io_in[16]
*9 io_in[17]
*10 io_in[18]
*11 io_in[19]
*12 io_in[1]
*13 io_in[20]
*14 io_in[21]
*15 io_in[22]
*16 io_in[23]
*17 io_in[24]
*18 io_in[25]
*19 io_in[26]
*20 io_in[27]
*21 io_in[28]
*22 io_in[29]
*23 io_in[2]
*24 io_in[30]
*25 io_in[31]
*26 io_in[32]
*27 io_in[33]
*28 io_in[34]
*29 io_in[35]
*30 io_in[36]
*31 io_in[37]
*32 io_in[3]
*33 io_in[4]
*34 io_in[5]
*35 io_in[6]
*36 io_in[7]
*37 io_in[8]
*38 io_in[9]
*39 io_oeb[0]
*40 io_oeb[10]
*41 io_oeb[11]
*42 io_oeb[12]
*43 io_oeb[13]
*44 io_oeb[14]
*45 io_oeb[15]
*46 io_oeb[16]
*47 io_oeb[17]
*48 io_oeb[18]
*49 io_oeb[19]
*50 io_oeb[1]
*51 io_oeb[20]
*52 io_oeb[21]
*53 io_oeb[22]
*54 io_oeb[23]
*55 io_oeb[24]
*56 io_oeb[25]
*57 io_oeb[26]
*58 io_oeb[27]
*59 io_oeb[28]
*60 io_oeb[29]
*61 io_oeb[2]
*62 io_oeb[30]
*63 io_oeb[31]
*64 io_oeb[32]
*65 io_oeb[33]
*66 io_oeb[34]
*67 io_oeb[35]
*68 io_oeb[36]
*69 io_oeb[37]
*70 io_oeb[3]
*71 io_oeb[4]
*72 io_oeb[5]
*73 io_oeb[6]
*74 io_oeb[7]
*75 io_oeb[8]
*76 io_oeb[9]
*77 io_out[0]
*78 io_out[10]
*79 io_out[11]
*80 io_out[12]
*81 io_out[13]
*82 io_out[14]
*83 io_out[15]
*84 io_out[16]
*85 io_out[17]
*86 io_out[18]
*87 io_out[19]
*88 io_out[1]
*89 io_out[20]
*90 io_out[21]
*91 io_out[22]
*92 io_out[23]
*93 io_out[24]
*94 io_out[25]
*95 io_out[26]
*96 io_out[27]
*97 io_out[28]
*98 io_out[29]
*99 io_out[2]
*100 io_out[30]
*101 io_out[31]
*102 io_out[32]
*103 io_out[33]
*104 io_out[34]
*105 io_out[35]
*106 io_out[36]
*107 io_out[37]
*108 io_out[3]
*109 io_out[4]
*110 io_out[5]
*111 io_out[6]
*112 io_out[7]
*113 io_out[8]
*114 io_out[9]
*115 la_data_in[0]
*116 la_data_in[10]
*117 la_data_in[11]
*118 la_data_in[12]
*119 la_data_in[13]
*120 la_data_in[14]
*121 la_data_in[15]
*122 la_data_in[16]
*123 la_data_in[17]
*124 la_data_in[18]
*125 la_data_in[19]
*126 la_data_in[1]
*127 la_data_in[20]
*128 la_data_in[21]
*129 la_data_in[22]
*130 la_data_in[23]
*131 la_data_in[24]
*132 la_data_in[25]
*133 la_data_in[26]
*134 la_data_in[27]
*135 la_data_in[28]
*136 la_data_in[29]
*137 la_data_in[2]
*138 la_data_in[30]
*139 la_data_in[31]
*140 la_data_in[32]
*141 la_data_in[33]
*142 la_data_in[34]
*143 la_data_in[35]
*144 la_data_in[36]
*145 la_data_in[37]
*146 la_data_in[38]
*147 la_data_in[39]
*148 la_data_in[3]
*149 la_data_in[40]
*150 la_data_in[41]
*151 la_data_in[42]
*152 la_data_in[43]
*153 la_data_in[44]
*154 la_data_in[45]
*155 la_data_in[46]
*156 la_data_in[47]
*157 la_data_in[48]
*158 la_data_in[49]
*159 la_data_in[4]
*160 la_data_in[50]
*161 la_data_in[51]
*162 la_data_in[52]
*163 la_data_in[53]
*164 la_data_in[54]
*165 la_data_in[55]
*166 la_data_in[56]
*167 la_data_in[57]
*168 la_data_in[58]
*169 la_data_in[59]
*170 la_data_in[5]
*171 la_data_in[60]
*172 la_data_in[61]
*173 la_data_in[62]
*174 la_data_in[63]
*175 la_data_in[6]
*176 la_data_in[7]
*177 la_data_in[8]
*178 la_data_in[9]
*179 la_data_out[0]
*180 la_data_out[10]
*181 la_data_out[11]
*182 la_data_out[12]
*183 la_data_out[13]
*184 la_data_out[14]
*185 la_data_out[15]
*186 la_data_out[16]
*187 la_data_out[17]
*188 la_data_out[18]
*189 la_data_out[19]
*190 la_data_out[1]
*191 la_data_out[20]
*192 la_data_out[21]
*193 la_data_out[22]
*194 la_data_out[23]
*195 la_data_out[24]
*196 la_data_out[25]
*197 la_data_out[26]
*198 la_data_out[27]
*199 la_data_out[28]
*200 la_data_out[29]
*201 la_data_out[2]
*202 la_data_out[30]
*203 la_data_out[31]
*204 la_data_out[32]
*205 la_data_out[33]
*206 la_data_out[34]
*207 la_data_out[35]
*208 la_data_out[36]
*209 la_data_out[37]
*210 la_data_out[38]
*211 la_data_out[39]
*212 la_data_out[3]
*213 la_data_out[40]
*214 la_data_out[41]
*215 la_data_out[42]
*216 la_data_out[43]
*217 la_data_out[44]
*218 la_data_out[45]
*219 la_data_out[46]
*220 la_data_out[47]
*221 la_data_out[48]
*222 la_data_out[49]
*223 la_data_out[4]
*224 la_data_out[50]
*225 la_data_out[51]
*226 la_data_out[52]
*227 la_data_out[53]
*228 la_data_out[54]
*229 la_data_out[55]
*230 la_data_out[56]
*231 la_data_out[57]
*232 la_data_out[58]
*233 la_data_out[59]
*234 la_data_out[5]
*235 la_data_out[60]
*236 la_data_out[61]
*237 la_data_out[62]
*238 la_data_out[63]
*239 la_data_out[6]
*240 la_data_out[7]
*241 la_data_out[8]
*242 la_data_out[9]
*243 la_oenb[0]
*244 la_oenb[10]
*245 la_oenb[11]
*246 la_oenb[12]
*247 la_oenb[13]
*248 la_oenb[14]
*249 la_oenb[15]
*250 la_oenb[16]
*251 la_oenb[17]
*252 la_oenb[18]
*253 la_oenb[19]
*254 la_oenb[1]
*255 la_oenb[20]
*256 la_oenb[21]
*257 la_oenb[22]
*258 la_oenb[23]
*259 la_oenb[24]
*260 la_oenb[25]
*261 la_oenb[26]
*262 la_oenb[27]
*263 la_oenb[28]
*264 la_oenb[29]
*265 la_oenb[2]
*266 la_oenb[30]
*267 la_oenb[31]
*268 la_oenb[32]
*269 la_oenb[33]
*270 la_oenb[34]
*271 la_oenb[35]
*272 la_oenb[36]
*273 la_oenb[37]
*274 la_oenb[38]
*275 la_oenb[39]
*276 la_oenb[3]
*277 la_oenb[40]
*278 la_oenb[41]
*279 la_oenb[42]
*280 la_oenb[43]
*281 la_oenb[44]
*282 la_oenb[45]
*283 la_oenb[46]
*284 la_oenb[47]
*285 la_oenb[48]
*286 la_oenb[49]
*287 la_oenb[4]
*288 la_oenb[50]
*289 la_oenb[51]
*290 la_oenb[52]
*291 la_oenb[53]
*292 la_oenb[54]
*293 la_oenb[55]
*294 la_oenb[56]
*295 la_oenb[57]
*296 la_oenb[58]
*297 la_oenb[59]
*298 la_oenb[5]
*299 la_oenb[60]
*300 la_oenb[61]
*301 la_oenb[62]
*302 la_oenb[63]
*303 la_oenb[6]
*304 la_oenb[7]
*305 la_oenb[8]
*306 la_oenb[9]
*307 user_clock2
*308 user_irq[0]
*309 user_irq[1]
*310 user_irq[2]
*313 wb_clk_i
*314 wb_rst_i
*315 wbs_ack_o
*316 wbs_adr_i[0]
*317 wbs_adr_i[10]
*318 wbs_adr_i[11]
*319 wbs_adr_i[12]
*320 wbs_adr_i[13]
*321 wbs_adr_i[14]
*322 wbs_adr_i[15]
*323 wbs_adr_i[16]
*324 wbs_adr_i[17]
*325 wbs_adr_i[18]
*326 wbs_adr_i[19]
*327 wbs_adr_i[1]
*328 wbs_adr_i[20]
*329 wbs_adr_i[21]
*330 wbs_adr_i[22]
*331 wbs_adr_i[23]
*332 wbs_adr_i[24]
*333 wbs_adr_i[25]
*334 wbs_adr_i[26]
*335 wbs_adr_i[27]
*336 wbs_adr_i[28]
*337 wbs_adr_i[29]
*338 wbs_adr_i[2]
*339 wbs_adr_i[30]
*340 wbs_adr_i[31]
*341 wbs_adr_i[3]
*342 wbs_adr_i[4]
*343 wbs_adr_i[5]
*344 wbs_adr_i[6]
*345 wbs_adr_i[7]
*346 wbs_adr_i[8]
*347 wbs_adr_i[9]
*348 wbs_cyc_i
*349 wbs_dat_i[0]
*350 wbs_dat_i[10]
*351 wbs_dat_i[11]
*352 wbs_dat_i[12]
*353 wbs_dat_i[13]
*354 wbs_dat_i[14]
*355 wbs_dat_i[15]
*356 wbs_dat_i[16]
*357 wbs_dat_i[17]
*358 wbs_dat_i[18]
*359 wbs_dat_i[19]
*360 wbs_dat_i[1]
*361 wbs_dat_i[20]
*362 wbs_dat_i[21]
*363 wbs_dat_i[22]
*364 wbs_dat_i[23]
*365 wbs_dat_i[24]
*366 wbs_dat_i[25]
*367 wbs_dat_i[26]
*368 wbs_dat_i[27]
*369 wbs_dat_i[28]
*370 wbs_dat_i[29]
*371 wbs_dat_i[2]
*372 wbs_dat_i[30]
*373 wbs_dat_i[31]
*374 wbs_dat_i[3]
*375 wbs_dat_i[4]
*376 wbs_dat_i[5]
*377 wbs_dat_i[6]
*378 wbs_dat_i[7]
*379 wbs_dat_i[8]
*380 wbs_dat_i[9]
*381 wbs_dat_o[0]
*382 wbs_dat_o[10]
*383 wbs_dat_o[11]
*384 wbs_dat_o[12]
*385 wbs_dat_o[13]
*386 wbs_dat_o[14]
*387 wbs_dat_o[15]
*388 wbs_dat_o[16]
*389 wbs_dat_o[17]
*390 wbs_dat_o[18]
*391 wbs_dat_o[19]
*392 wbs_dat_o[1]
*393 wbs_dat_o[20]
*394 wbs_dat_o[21]
*395 wbs_dat_o[22]
*396 wbs_dat_o[23]
*397 wbs_dat_o[24]
*398 wbs_dat_o[25]
*399 wbs_dat_o[26]
*400 wbs_dat_o[27]
*401 wbs_dat_o[28]
*402 wbs_dat_o[29]
*403 wbs_dat_o[2]
*404 wbs_dat_o[30]
*405 wbs_dat_o[31]
*406 wbs_dat_o[3]
*407 wbs_dat_o[4]
*408 wbs_dat_o[5]
*409 wbs_dat_o[6]
*410 wbs_dat_o[7]
*411 wbs_dat_o[8]
*412 wbs_dat_o[9]
*413 wbs_sel_i[0]
*414 wbs_sel_i[1]
*415 wbs_sel_i[2]
*416 wbs_sel_i[3]
*417 wbs_stb_i
*418 wbs_we_i
*419 wrapped_as2650

*PORTS
io_in[0] I
io_in[10] I
io_in[11] I
io_in[12] I
io_in[13] I
io_in[14] I
io_in[15] I
io_in[16] I
io_in[17] I
io_in[18] I
io_in[19] I
io_in[1] I
io_in[20] I
io_in[21] I
io_in[22] I
io_in[23] I
io_in[24] I
io_in[25] I
io_in[26] I
io_in[27] I
io_in[28] I
io_in[29] I
io_in[2] I
io_in[30] I
io_in[31] I
io_in[32] I
io_in[33] I
io_in[34] I
io_in[35] I
io_in[36] I
io_in[37] I
io_in[3] I
io_in[4] I
io_in[5] I
io_in[6] I
io_in[7] I
io_in[8] I
io_in[9] I
io_oeb[0] O
io_oeb[10] O
io_oeb[11] O
io_oeb[12] O
io_oeb[13] O
io_oeb[14] O
io_oeb[15] O
io_oeb[16] O
io_oeb[17] O
io_oeb[18] O
io_oeb[19] O
io_oeb[1] O
io_oeb[20] O
io_oeb[21] O
io_oeb[22] O
io_oeb[23] O
io_oeb[24] O
io_oeb[25] O
io_oeb[26] O
io_oeb[27] O
io_oeb[28] O
io_oeb[29] O
io_oeb[2] O
io_oeb[30] O
io_oeb[31] O
io_oeb[32] O
io_oeb[33] O
io_oeb[34] O
io_oeb[35] O
io_oeb[36] O
io_oeb[37] O
io_oeb[3] O
io_oeb[4] O
io_oeb[5] O
io_oeb[6] O
io_oeb[7] O
io_oeb[8] O
io_oeb[9] O
io_out[0] O
io_out[10] O
io_out[11] O
io_out[12] O
io_out[13] O
io_out[14] O
io_out[15] O
io_out[16] O
io_out[17] O
io_out[18] O
io_out[19] O
io_out[1] O
io_out[20] O
io_out[21] O
io_out[22] O
io_out[23] O
io_out[24] O
io_out[25] O
io_out[26] O
io_out[27] O
io_out[28] O
io_out[29] O
io_out[2] O
io_out[30] O
io_out[31] O
io_out[32] O
io_out[33] O
io_out[34] O
io_out[35] O
io_out[36] O
io_out[37] O
io_out[3] O
io_out[4] O
io_out[5] O
io_out[6] O
io_out[7] O
io_out[8] O
io_out[9] O
la_data_in[0] I
la_data_in[10] I
la_data_in[11] I
la_data_in[12] I
la_data_in[13] I
la_data_in[14] I
la_data_in[15] I
la_data_in[16] I
la_data_in[17] I
la_data_in[18] I
la_data_in[19] I
la_data_in[1] I
la_data_in[20] I
la_data_in[21] I
la_data_in[22] I
la_data_in[23] I
la_data_in[24] I
la_data_in[25] I
la_data_in[26] I
la_data_in[27] I
la_data_in[28] I
la_data_in[29] I
la_data_in[2] I
la_data_in[30] I
la_data_in[31] I
la_data_in[32] I
la_data_in[33] I
la_data_in[34] I
la_data_in[35] I
la_data_in[36] I
la_data_in[37] I
la_data_in[38] I
la_data_in[39] I
la_data_in[3] I
la_data_in[40] I
la_data_in[41] I
la_data_in[42] I
la_data_in[43] I
la_data_in[44] I
la_data_in[45] I
la_data_in[46] I
la_data_in[47] I
la_data_in[48] I
la_data_in[49] I
la_data_in[4] I
la_data_in[50] I
la_data_in[51] I
la_data_in[52] I
la_data_in[53] I
la_data_in[54] I
la_data_in[55] I
la_data_in[56] I
la_data_in[57] I
la_data_in[58] I
la_data_in[59] I
la_data_in[5] I
la_data_in[60] I
la_data_in[61] I
la_data_in[62] I
la_data_in[63] I
la_data_in[6] I
la_data_in[7] I
la_data_in[8] I
la_data_in[9] I
la_data_out[0] O
la_data_out[10] O
la_data_out[11] O
la_data_out[12] O
la_data_out[13] O
la_data_out[14] O
la_data_out[15] O
la_data_out[16] O
la_data_out[17] O
la_data_out[18] O
la_data_out[19] O
la_data_out[1] O
la_data_out[20] O
la_data_out[21] O
la_data_out[22] O
la_data_out[23] O
la_data_out[24] O
la_data_out[25] O
la_data_out[26] O
la_data_out[27] O
la_data_out[28] O
la_data_out[29] O
la_data_out[2] O
la_data_out[30] O
la_data_out[31] O
la_data_out[32] O
la_data_out[33] O
la_data_out[34] O
la_data_out[35] O
la_data_out[36] O
la_data_out[37] O
la_data_out[38] O
la_data_out[39] O
la_data_out[3] O
la_data_out[40] O
la_data_out[41] O
la_data_out[42] O
la_data_out[43] O
la_data_out[44] O
la_data_out[45] O
la_data_out[46] O
la_data_out[47] O
la_data_out[48] O
la_data_out[49] O
la_data_out[4] O
la_data_out[50] O
la_data_out[51] O
la_data_out[52] O
la_data_out[53] O
la_data_out[54] O
la_data_out[55] O
la_data_out[56] O
la_data_out[57] O
la_data_out[58] O
la_data_out[59] O
la_data_out[5] O
la_data_out[60] O
la_data_out[61] O
la_data_out[62] O
la_data_out[63] O
la_data_out[6] O
la_data_out[7] O
la_data_out[8] O
la_data_out[9] O
la_oenb[0] I
la_oenb[10] I
la_oenb[11] I
la_oenb[12] I
la_oenb[13] I
la_oenb[14] I
la_oenb[15] I
la_oenb[16] I
la_oenb[17] I
la_oenb[18] I
la_oenb[19] I
la_oenb[1] I
la_oenb[20] I
la_oenb[21] I
la_oenb[22] I
la_oenb[23] I
la_oenb[24] I
la_oenb[25] I
la_oenb[26] I
la_oenb[27] I
la_oenb[28] I
la_oenb[29] I
la_oenb[2] I
la_oenb[30] I
la_oenb[31] I
la_oenb[32] I
la_oenb[33] I
la_oenb[34] I
la_oenb[35] I
la_oenb[36] I
la_oenb[37] I
la_oenb[38] I
la_oenb[39] I
la_oenb[3] I
la_oenb[40] I
la_oenb[41] I
la_oenb[42] I
la_oenb[43] I
la_oenb[44] I
la_oenb[45] I
la_oenb[46] I
la_oenb[47] I
la_oenb[48] I
la_oenb[49] I
la_oenb[4] I
la_oenb[50] I
la_oenb[51] I
la_oenb[52] I
la_oenb[53] I
la_oenb[54] I
la_oenb[55] I
la_oenb[56] I
la_oenb[57] I
la_oenb[58] I
la_oenb[59] I
la_oenb[5] I
la_oenb[60] I
la_oenb[61] I
la_oenb[62] I
la_oenb[63] I
la_oenb[6] I
la_oenb[7] I
la_oenb[8] I
la_oenb[9] I
user_clock2 I
user_irq[0] O
user_irq[1] O
user_irq[2] O
wb_clk_i I
wb_rst_i I
wbs_ack_o O
wbs_adr_i[0] I
wbs_adr_i[10] I
wbs_adr_i[11] I
wbs_adr_i[12] I
wbs_adr_i[13] I
wbs_adr_i[14] I
wbs_adr_i[15] I
wbs_adr_i[16] I
wbs_adr_i[17] I
wbs_adr_i[18] I
wbs_adr_i[19] I
wbs_adr_i[1] I
wbs_adr_i[20] I
wbs_adr_i[21] I
wbs_adr_i[22] I
wbs_adr_i[23] I
wbs_adr_i[24] I
wbs_adr_i[25] I
wbs_adr_i[26] I
wbs_adr_i[27] I
wbs_adr_i[28] I
wbs_adr_i[29] I
wbs_adr_i[2] I
wbs_adr_i[30] I
wbs_adr_i[31] I
wbs_adr_i[3] I
wbs_adr_i[4] I
wbs_adr_i[5] I
wbs_adr_i[6] I
wbs_adr_i[7] I
wbs_adr_i[8] I
wbs_adr_i[9] I
wbs_cyc_i I
wbs_dat_i[0] I
wbs_dat_i[10] I
wbs_dat_i[11] I
wbs_dat_i[12] I
wbs_dat_i[13] I
wbs_dat_i[14] I
wbs_dat_i[15] I
wbs_dat_i[16] I
wbs_dat_i[17] I
wbs_dat_i[18] I
wbs_dat_i[19] I
wbs_dat_i[1] I
wbs_dat_i[20] I
wbs_dat_i[21] I
wbs_dat_i[22] I
wbs_dat_i[23] I
wbs_dat_i[24] I
wbs_dat_i[25] I
wbs_dat_i[26] I
wbs_dat_i[27] I
wbs_dat_i[28] I
wbs_dat_i[29] I
wbs_dat_i[2] I
wbs_dat_i[30] I
wbs_dat_i[31] I
wbs_dat_i[3] I
wbs_dat_i[4] I
wbs_dat_i[5] I
wbs_dat_i[6] I
wbs_dat_i[7] I
wbs_dat_i[8] I
wbs_dat_i[9] I
wbs_dat_o[0] O
wbs_dat_o[10] O
wbs_dat_o[11] O
wbs_dat_o[12] O
wbs_dat_o[13] O
wbs_dat_o[14] O
wbs_dat_o[15] O
wbs_dat_o[16] O
wbs_dat_o[17] O
wbs_dat_o[18] O
wbs_dat_o[19] O
wbs_dat_o[1] O
wbs_dat_o[20] O
wbs_dat_o[21] O
wbs_dat_o[22] O
wbs_dat_o[23] O
wbs_dat_o[24] O
wbs_dat_o[25] O
wbs_dat_o[26] O
wbs_dat_o[27] O
wbs_dat_o[28] O
wbs_dat_o[29] O
wbs_dat_o[2] O
wbs_dat_o[30] O
wbs_dat_o[31] O
wbs_dat_o[3] O
wbs_dat_o[4] O
wbs_dat_o[5] O
wbs_dat_o[6] O
wbs_dat_o[7] O
wbs_dat_o[8] O
wbs_dat_o[9] O
wbs_sel_i[0] I
wbs_sel_i[1] I
wbs_sel_i[2] I
wbs_sel_i[3] I
wbs_stb_i I
wbs_we_i I

*D_NET *1 0.356196
*CONN
*P io_in[0] I
*I *419:io_in[0] I *D wrapped_as2650
*CAP
1 io_in[0] 0.0582037
2 *419:io_in[0] 0
3 *1:9 0.0918311
4 *1:7 0.0918311
5 *1:5 0.0582037
6 *1:5 la_data_out[14] 0
7 *1:5 la_data_out[15] 0
8 *1:5 la_data_out[17] 0
9 *1:5 la_data_out[19] 0
10 *1:5 la_data_out[20] 0
11 *1:5 la_data_out[23] 0
12 *1:5 la_data_out[24] 0
13 *1:5 la_data_out[2] 0
14 *1:5 la_data_out[3] 0.000364069
15 *1:5 la_data_out[7] 0
16 *1:5 *193:11 0.00368584
17 *1:5 *199:19 0
18 *1:5 *200:9 0.000737005
19 *1:5 *202:17 0
20 *1:5 *204:9 0.00696595
21 *1:5 *215:17 0
22 *1:5 *216:17 7.05982e-05
23 *1:5 *217:9 0
24 *1:5 *220:9 0.0117691
25 *1:5 *222:17 0
26 *1:5 *237:17 0
27 *1:9 la_data_out[5] 0.0325343
*RES
1 io_in[0] *1:5 477.926 
2 *1:5 *1:7 4.5 
3 *1:7 *1:9 665.38 
4 *1:9 *419:io_in[0] 9 
*END

*D_NET *2 0.298596
*CONN
*P io_in[10] I
*I *419:io_in[10] I *D wrapped_as2650
*CAP
1 io_in[10] 0.000943817
2 *419:io_in[10] 0.000809514
3 *2:13 0.0302051
4 *2:11 0.0293955
5 *2:9 0.00164855
6 *2:7 0.00259236
7 *419:io_in[10] *112:15 0.000312984
8 *2:9 *75:21 0.0528651
9 *2:9 *78:21 0.0456541
10 *2:9 *112:21 1.8344e-05
11 *2:13 *4:13 0.0117944
12 *2:13 *10:9 0.000197582
13 *2:13 *19:13 0.048022
14 *2:13 *37:25 0.00231617
15 *2:13 *58:9 0.00439361
16 *2:13 *59:11 0.018415
17 *2:13 *65:11 3.19219e-05
18 *2:13 *66:9 0.0206451
19 *2:13 *75:9 0.006525
20 *2:13 *78:13 0.0130789
21 *2:13 *96:15 0.00127634
22 *2:13 *101:15 0.00326933
23 *2:13 *111:15 0.000262225
24 *2:13 *112:17 0
25 *2:13 *114:9 0.00392335
*RES
1 io_in[10] *2:7 10.77 
2 *2:7 *2:9 132.468 
3 *2:9 *2:11 4.5 
4 *2:11 *2:13 398.772 
5 *2:13 *419:io_in[10] 9.25 
*END

*D_NET *3 0.231798
*CONN
*P io_in[11] I
*I *419:io_in[11] I *D wrapped_as2650
*CAP
1 io_in[11] 0.0273168
2 *419:io_in[11] 0.000377786
3 *3:13 0.00747462
4 *3:11 0.00709683
5 *3:9 0.00399192
6 *3:7 0.00399192
7 *3:5 0.0273168
8 *3:9 *4:11 0.00899813
9 *3:9 *23:9 0.00265115
10 *3:9 *38:9 0.0308061
11 *3:13 *12:13 0.00690911
12 *3:13 *75:17 0.000334899
13 *3:13 *96:17 0.0111012
14 *3:13 *109:9 0.0847763
15 *3:13 *111:23 0.00865434
*RES
1 io_in[11] *3:5 191.558 
2 *3:5 *3:7 4.5 
3 *3:7 *3:9 76.228 
4 *3:9 *3:11 4.5 
5 *3:11 *3:13 206.188 
6 *3:13 *419:io_in[11] 6.514 
*END

*D_NET *4 0.221422
*CONN
*P io_in[12] I
*I *419:io_in[12] I *D wrapped_as2650
*CAP
1 io_in[12] 0.0273154
2 *419:io_in[12] 0.000795776
3 *4:13 0.00297654
4 *4:11 0.00417848
5 *4:5 0.0293132
6 *4:11 *23:9 0.000861889
7 *4:11 *38:9 0.000363324
8 *4:13 *37:25 0.000778857
9 *4:13 *38:13 0.0817019
10 *4:13 *58:9 0.024296
11 *4:13 *59:11 0.00151318
12 *4:13 *75:9 0.020192
13 *4:13 *101:15 0.00634255
14 *4:13 *112:17 0
15 *2:13 *4:13 0.0117944
16 *3:9 *4:11 0.00899813
*RES
1 io_in[12] *4:5 191.406 
2 *4:5 *4:11 33.7 
3 *4:11 *4:13 199.044 
4 *4:13 *419:io_in[12] 8.794 
*END

*D_NET *5 0.119498
*CONN
*P io_in[13] I
*I *419:io_in[13] I *D wrapped_as2650
*CAP
1 io_in[13] 0.0541829
2 *419:io_in[13] 0.00556614
3 *5:5 0.059749
4 *5:5 *85:9 0
*RES
1 io_in[13] *5:5 383.078 
2 *5:5 *419:io_in[13] 37.978 
*END

*D_NET *6 0.137036
*CONN
*P io_in[14] I
*I *419:io_in[14] I *D wrapped_as2650
*CAP
1 io_in[14] 0.00124957
2 *419:io_in[14] 0.00304543
3 *6:13 0.0415202
4 *6:11 0.0384747
5 *6:9 0.0104006
6 *6:7 0.0116501
7 *6:13 io_oeb[12] 0.0306953
*RES
1 io_in[14] *6:7 11.53 
2 *6:7 *6:9 71.06 
3 *6:9 *6:11 4.5 
4 *6:11 *6:13 368.828 
5 *6:13 *419:io_in[14] 20.802 
*END

*D_NET *7 0.176332
*CONN
*P io_in[15] I
*I *419:io_in[15] I *D wrapped_as2650
*CAP
1 io_in[15] 0.00134908
2 *419:io_in[15] 0.0187939
3 *7:11 0.0187939
4 *7:9 0.0236953
5 *7:7 0.0250444
6 *419:io_in[15] *78:13 0.000594527
7 *7:9 io_oeb[14] 0.0729513
8 *7:9 *13:9 0.0151097
*RES
1 io_in[15] *7:7 13.81 
2 *7:7 *7:9 353.628 
3 *7:9 *7:11 4.5 
4 *7:11 *419:io_in[15] 123.462 
*END

*D_NET *8 0.183513
*CONN
*P io_in[16] I
*I *419:io_in[16] I *D wrapped_as2650
*CAP
1 io_in[16] 0.00404574
2 *419:io_in[16] 0.0161828
3 *8:11 0.0161828
4 *8:9 0.0184335
5 *8:7 0.0224792
6 *8:9 io_out[14] 0.106189
*RES
1 io_in[16] *8:7 31.898 
2 *8:7 *8:9 256.5 
3 *8:9 *8:11 4.5 
4 *8:11 *419:io_in[16] 105.374 
*END

*D_NET *9 0.0927555
*CONN
*P io_in[17] I
*I *419:io_in[17] I *D wrapped_as2650
*CAP
1 io_in[17] 0.0023646
2 *419:io_in[17] 0.0179921
3 *9:11 0.0179921
4 *9:9 0.0205058
5 *9:7 0.0228704
6 *9:9 *14:9 0.00101197
7 *9:9 *51:9 0.0100187
*RES
1 io_in[17] *9:7 20.346 
2 *9:7 *9:9 159.372 
3 *9:9 *9:11 4.5 
4 *9:11 *419:io_in[17] 116.926 
*END

*D_NET *10 0.0739687
*CONN
*P io_in[18] I
*I *419:io_in[18] I *D wrapped_as2650
*CAP
1 io_in[18] 0.019147
2 *419:io_in[18] 0.00104523
3 *10:9 0.00215267
4 *10:7 0.00110744
5 *10:5 0.019147
6 *10:5 *57:7 0
7 *10:5 *84:13 0
8 *10:5 *95:7 0
9 *10:9 *19:13 0.00370152
10 *10:9 *49:9 0.00393688
11 *10:9 *53:9 0.00448652
12 *10:9 *86:11 0.0112874
13 *10:9 *96:15 0.000778054
14 *10:9 *114:9 0.00698142
15 *2:13 *10:9 0.000197582
*RES
1 io_in[18] *10:5 127.414 
2 *10:5 *10:7 4.5 
3 *10:7 *10:9 62.244 
4 *10:9 *419:io_in[18] 9.858 
*END

*D_NET *11 0.0507114
*CONN
*P io_in[19] I
*I *419:io_in[19] I *D wrapped_as2650
*CAP
1 io_in[19] 0.00264716
2 *419:io_in[19] 0.0176412
3 *11:11 0.0225705
4 *11:7 0.00757645
5 *11:7 *44:5 0.000276085
*RES
1 io_in[19] *11:7 22.93 
2 *11:7 *11:11 39.536 
3 *11:11 *419:io_in[19] 114.342 
*END

*D_NET *12 0.508788
*CONN
*P io_in[1] I
*I *419:io_in[1] I *D wrapped_as2650
*CAP
1 io_in[1] 0.00104681
2 *419:io_in[1] 0.000739384
3 *12:23 0.0060901
4 *12:13 0.0409647
5 *12:11 0.035614
6 *12:9 0.0853563
7 *12:7 0.0864031
8 *12:9 *37:9 0.00857259
9 *12:9 *111:27 0.031087
10 *12:9 *112:21 0.00776795
11 *12:9 *113:21 0.00684439
12 *12:13 *23:13 6.43727e-05
13 *12:13 *34:13 0
14 *12:13 *39:15 0.0998598
15 *12:13 *58:17 0.00200895
16 *12:13 *75:17 0.00701318
17 *12:13 *78:17 0.00606946
18 *12:13 *96:17 0.00534087
19 *12:13 *99:15 4.01972e-05
20 *12:13 *109:9 0.00629322
21 *12:13 *111:23 0.0235878
22 *12:13 *112:17 0.00557129
23 *12:23 *19:13 0.00331103
24 *12:23 *21:21 0.00461014
25 *12:23 *23:13 0.000236464
26 *12:23 *31:13 0
27 *12:23 *37:25 0.015607
28 *12:23 *39:15 0
29 *12:23 *53:9 0.000402837
30 *12:23 *75:9 0.000507426
31 *12:23 *99:15 0.00336455
32 *12:23 *111:15 0.00750413
33 *3:13 *12:13 0.00690911
*RES
1 io_in[1] *12:7 11.53 
2 *12:7 *12:9 614.571 
3 *12:9 *12:11 4.5 
4 *12:11 *12:13 159.968 
5 *12:13 *12:23 49.5087 
6 *12:23 *419:io_in[1] 13.3673 
*END

*D_NET *13 0.0882731
*CONN
*P io_in[20] I
*I *419:io_in[20] I *D wrapped_as2650
*CAP
1 io_in[20] 0.00136566
2 *419:io_in[20] 0.0190525
3 *13:11 0.0190525
4 *13:9 0.0158088
5 *13:7 0.0171744
6 *13:9 io_oeb[14] 0.000709567
7 *7:9 *13:9 0.0151097
*RES
1 io_in[20] *13:7 13.658 
2 *13:7 *13:9 131.86 
3 *13:9 *13:11 4.5 
4 *13:11 *419:io_in[20] 123.614 
*END

*D_NET *14 0.159335
*CONN
*P io_in[21] I
*I *419:io_in[21] I *D wrapped_as2650
*CAP
1 io_in[21] 0.00240835
2 *419:io_in[21] 0.0179329
3 *14:11 0.0179329
4 *14:9 0.0185669
5 *14:7 0.0209753
6 *14:9 *51:9 0.0805063
7 *9:9 *14:9 0.00101197
*RES
1 io_in[21] *14:7 20.65 
2 *14:7 *14:9 229.292 
3 *14:9 *14:11 4.5 
4 *14:11 *419:io_in[21] 116.622 
*END

*D_NET *15 0.133457
*CONN
*P io_in[22] I
*I *419:io_in[22] I *D wrapped_as2650
*CAP
1 io_in[22] 0.00439566
2 *419:io_in[22] 0.015843
3 *15:11 0.015843
4 *15:9 0.0403544
5 *15:7 0.0447501
6 *419:io_in[22] *20:21 0
7 *15:9 io_out[24] 0.0122711
*RES
1 io_in[22] *15:7 34.33 
2 *15:7 *15:9 326.42 
3 *15:9 *15:11 4.5 
4 *15:11 *419:io_in[22] 102.942 
*END

*D_NET *16 0.240974
*CONN
*P io_in[23] I
*I *419:io_in[23] I *D wrapped_as2650
*CAP
1 io_in[23] 0.00371396
2 *419:io_in[23] 0.0165089
3 *16:11 0.0165089
4 *16:9 0.0386099
5 *16:7 0.0423238
6 *16:9 *45:9 0.00251561
7 *16:9 *52:9 0.120793
*RES
1 io_in[23] *16:7 29.77 
2 *16:7 *16:9 423.548 
3 *16:9 *16:11 4.5 
4 *16:11 *419:io_in[23] 107.502 
*END

*D_NET *17 0.179129
*CONN
*P io_in[24] I
*I *419:io_in[24] I *D wrapped_as2650
*CAP
1 io_in[24] 0.071006
2 *419:io_in[24] 0.0185586
3 *17:7 0.0185586
4 *17:5 0.071006
*RES
1 io_in[24] *17:5 505.134 
2 *17:5 *17:7 4.5 
3 *17:7 *419:io_in[24] 121.182 
*END

*D_NET *18 0.168141
*CONN
*P io_in[25] I
*I *419:io_in[25] I *D wrapped_as2650
*CAP
1 io_in[25] 0.0722573
2 *419:io_in[25] 0.0118133
3 *18:7 0.0118133
4 *18:5 0.0722573
*RES
1 io_in[25] *18:5 512.43 
2 *18:5 *18:7 4.5 
3 *18:7 *419:io_in[25] 63.726 
*END

*D_NET *19 0.298315
*CONN
*P io_in[26] I
*I *419:io_in[26] I *D wrapped_as2650
*CAP
1 io_in[26] 0.00100812
2 *419:io_in[26] 0.000732189
3 *19:13 0.0363757
4 *19:11 0.0366517
5 *419:io_in[26] *419:io_in[29] 0.000610708
6 *19:11 *65:21 4.24527e-05
7 *19:11 *66:17 0.000453567
8 *19:13 *37:25 0.00282717
9 *19:13 *53:9 0.160659
10 *19:13 *66:17 0
11 *19:13 *75:9 0.00176872
12 *19:13 *101:15 0.00199337
13 *19:13 *112:15 0.000157772
14 *2:13 *19:13 0.048022
15 *10:9 *19:13 0.00370152
16 *12:23 *19:13 0.00331103
*RES
1 io_in[26] *19:11 16.714 
2 *19:11 *19:13 513.532 
3 *19:13 *419:io_in[26] 9.402 
*END

*D_NET *20 0.348812
*CONN
*P io_in[27] I
*I *419:io_in[27] I *D wrapped_as2650
*CAP
1 io_in[27] 0.00111675
2 *419:io_in[27] 0.000695355
3 *20:21 0.00268606
4 *20:13 0.0346331
5 *20:11 0.0326424
6 *20:9 4.77863e-05
7 *20:7 0.00116454
8 *20:9 *21:9 0.0208612
9 *20:9 *58:21 0.020854
10 *20:13 *22:13 0.201291
11 *20:13 *32:13 0.000228679
12 *20:13 *33:13 0.000263988
13 *20:13 *34:13 0.00508395
14 *20:13 *37:13 0.0132394
15 *20:13 *98:9 0
16 *20:21 *419:io_in[29] 0.00315767
17 *20:21 *38:13 0.005485
18 *20:21 *53:7 7.3308e-05
19 *20:21 *111:15 0.00182448
20 *20:21 *112:17 0.00346344
21 *419:io_in[22] *20:21 0
*RES
1 io_in[27] *20:7 10.618 
2 *20:7 *20:9 51.604 
3 *20:9 *20:11 4.5 
4 *20:11 *20:13 486.02 
5 *20:13 *20:21 47.456 
6 *20:21 *419:io_in[27] 8.338 
*END

*D_NET *21 0.438558
*CONN
*P io_in[28] I
*I *419:io_in[28] I *D wrapped_as2650
*CAP
1 io_in[28] 0.00107014
2 *419:io_in[28] 0.000756338
3 *21:21 0.00115686
4 *21:19 0.00054803
5 *21:13 0.028369
6 *21:11 0.0282215
7 *21:9 0.00199916
8 *21:7 0.0030693
9 *21:9 *22:9 0.000322638
10 *21:9 *58:21 0.00790662
11 *21:9 *59:21 0.0433244
12 *21:9 *60:10 0
13 *21:9 *65:21 1.44832e-05
14 *21:9 *101:27 0.000328924
15 *21:13 *23:13 0.00333542
16 *21:13 *39:15 0.000460897
17 *21:13 *101:23 0.167125
18 *21:13 *112:15 0.000250603
19 *21:13 *112:17 0.00299133
20 *21:13 *113:15 0.000802589
21 *21:19 *113:15 0.000302203
22 *21:21 *419:io_in[29] 0.000194498
23 *21:21 *37:25 0.00488861
24 *21:21 *38:13 0.00602688
25 *21:21 *99:15 0.000605318
26 *21:21 *101:15 0.0479667
27 *21:21 *111:15 0.061049
28 *12:23 *21:21 0.00461014
29 *20:9 *21:9 0.0208612
*RES
1 io_in[28] *21:7 10.466 
2 *21:7 *21:9 111.492 
3 *21:9 *21:11 4.5 
4 *21:11 *21:13 404.092 
5 *21:13 *21:19 10.045 
6 *21:19 *21:21 52.1045 
7 *21:21 *419:io_in[28] 17.623 
*END

*D_NET *22 0.47622
*CONN
*P io_in[29] I
*I *419:io_in[29] I *D wrapped_as2650
*CAP
1 io_in[29] 0.000821019
2 *419:io_in[29] 0.0017189
3 *22:13 0.0225124
4 *22:11 0.0207935
5 *22:9 0.00150018
6 *22:7 0.0023212
7 *419:io_in[29] *38:13 0.00921818
8 *419:io_in[29] *111:15 0.000475588
9 *419:io_in[29] *112:17 0.00121912
10 *22:9 *59:21 0.0589079
11 *22:9 *101:27 0.0672693
12 *22:13 *28:13 0.00596436
13 *22:13 *32:13 0.000249188
14 *22:13 *33:13 0.000284613
15 *22:13 *34:13 0.00638927
16 *22:13 *36:13 0.00373484
17 *22:13 *37:13 0.00563113
18 *22:13 *40:11 0.0468545
19 *22:13 *60:6 0.013748
20 *22:13 *110:6 0.00103082
21 *419:io_in[26] *419:io_in[29] 0.000610708
22 *20:13 *22:13 0.201291
23 *20:21 *419:io_in[29] 0.00315767
24 *21:9 *22:9 0.000322638
25 *21:21 *419:io_in[29] 0.000194498
*RES
1 io_in[29] *22:7 10.162 
2 *22:7 *22:9 166.212 
3 *22:9 *22:11 4.5 
4 *22:11 *22:13 513.836 
5 *22:13 *419:io_in[29] 43.482 
*END

*D_NET *23 0.601611
*CONN
*P io_in[2] I
*I *419:io_in[2] I *D wrapped_as2650
*CAP
1 io_in[2] 0.0269977
2 *419:io_in[2] 0.000559337
3 *23:13 0.00146824
4 *23:11 0.000908905
5 *23:9 0.00579584
6 *23:7 0.00579584
7 *23:5 0.0269977
8 *23:9 *38:9 0.00383859
9 *23:9 *39:19 0.117476
10 *23:9 *99:19 0.113705
11 *23:13 *39:15 0.137481
12 *23:13 *78:17 0.00932653
13 *23:13 *99:15 0.135211
14 *23:13 *112:17 0.00889983
15 *3:9 *23:9 0.00265115
16 *4:11 *23:9 0.000861889
17 *12:13 *23:13 6.43727e-05
18 *12:23 *23:13 0.000236464
19 *21:13 *23:13 0.00333542
*RES
1 io_in[2] *23:5 191.406 
2 *23:5 *23:7 4.5 
3 *23:7 *23:9 561.556 
4 *23:9 *23:11 4.5 
5 *23:11 *23:13 113.895 
6 *23:13 *419:io_in[2] 16.6459 
*END

*D_NET *24 0.217749
*CONN
*P io_in[30] I
*I *419:io_in[30] I *D wrapped_as2650
*CAP
1 io_in[30] 0.0775616
2 *419:io_in[30] 0.000985424
3 *24:9 0.0310616
4 *24:7 0.0300761
5 *24:5 0.0775616
6 *419:io_in[30] *35:13 0.00040515
7 *419:io_in[30] *113:17 9.77648e-05
*RES
1 io_in[30] *24:5 546.782 
2 *24:5 *24:7 4.5 
3 *24:7 *24:9 218.272 
4 *24:9 *419:io_in[30] 16.182 
*END

*D_NET *25 0.235458
*CONN
*P io_in[31] I
*I *419:io_in[31] I *D wrapped_as2650
*CAP
1 io_in[31] 0.0789361
2 *419:io_in[31] 0.000767872
3 *25:9 0.0387931
4 *25:7 0.0380252
5 *25:5 0.0789361
*RES
1 io_in[31] *25:5 555.902 
2 *25:5 *25:7 4.5 
3 *25:7 *25:9 275.728 
4 *25:9 *419:io_in[31] 14.092 
*END

*D_NET *26 0.385464
*CONN
*P io_in[32] I
*I *419:io_in[32] I *D wrapped_as2650
*CAP
1 io_in[32] 0.0447719
2 *419:io_in[32] 0.00126974
3 *26:13 0.00771804
4 *26:11 0.0064483
5 *26:9 0.0506016
6 *26:7 0.0506016
7 *26:5 0.0447719
8 *26:13 *27:13 0.101492
9 *26:13 *30:13 0.000648071
10 *26:13 *63:9 0
11 *26:13 *76:9 0.0681953
12 *26:13 *77:15 0.00894575
*RES
1 io_in[32] *26:5 317.566 
2 *26:5 *26:7 4.5 
3 *26:7 *26:9 345.572 
4 *26:9 *26:11 4.5 
5 *26:11 *26:13 246.012 
6 *26:13 *419:io_in[32] 11.53 
*END

*D_NET *27 0.423056
*CONN
*P io_in[33] I
*I *419:io_in[33] I *D wrapped_as2650
*CAP
1 io_in[33] 0.0440971
2 *419:io_in[33] 0.00123505
3 *27:13 0.0026118
4 *27:11 0.00137675
5 *27:9 0.0589561
6 *27:7 0.0589561
7 *27:5 0.0440971
8 *27:13 *29:13 0.00896036
9 *27:13 *30:13 0.000873975
10 *27:13 *63:9 0
11 *27:13 *76:9 0.00150365
12 *27:13 *77:15 0.0105897
13 *27:13 *108:9 0.0883061
14 *26:13 *27:13 0.101492
*RES
1 io_in[33] *27:5 313.006 
2 *27:5 *27:7 4.5 
3 *27:7 *27:9 402.876 
4 *27:9 *27:11 4.5 
5 *27:11 *27:13 257.868 
6 *27:13 *419:io_in[33] 11.378 
*END

*D_NET *28 0.427177
*CONN
*P io_in[34] I
*I *419:io_in[34] I *D wrapped_as2650
*CAP
1 io_in[34] 0.0203534
2 *419:io_in[34] 2.03904e-05
3 *28:13 0.0391871
4 *28:11 0.0391667
5 *28:9 0.0626057
6 *28:7 0.0626057
7 *28:5 0.0203534
8 *28:13 *32:13 0.115266
9 *28:13 *35:13 0.00848862
10 *28:13 *59:17 0.0226042
11 *28:13 *60:6 0.0216645
12 *28:13 *113:17 0.00889657
13 *22:13 *28:13 0.00596436
*RES
1 io_in[34] *28:5 144.286 
2 *28:5 *28:7 4.5 
3 *28:7 *28:9 452.86 
4 *28:9 *28:11 4.5 
5 *28:11 *28:13 181.668 
6 *28:13 *419:io_in[34] 13.6004 
*END

*D_NET *29 0.468829
*CONN
*P io_in[35] I
*I *419:io_in[35] I *D wrapped_as2650
*CAP
1 io_in[35] 0.0437181
2 *419:io_in[35] 0.00114002
3 *29:13 0.00242933
4 *29:11 0.00128931
5 *29:9 0.0756493
6 *29:7 0.0756493
7 *29:5 0.0437181
8 *29:13 *30:13 0.0145496
9 *29:13 *50:9 0.10131
10 *29:13 *95:9 0.00603832
11 *29:13 *108:9 0.0943769
12 *27:13 *29:13 0.00896036
*RES
1 io_in[35] *29:5 310.726 
2 *29:5 *29:7 4.5 
3 *29:7 *29:9 517.484 
4 *29:9 *29:11 4.5 
5 *29:11 *29:13 274.74 
6 *29:13 *419:io_in[35] 11.074 
*END

*D_NET *30 0.542961
*CONN
*P io_in[36] I
*I *419:io_in[36] I *D wrapped_as2650
*CAP
1 io_in[36] 0.0433947
2 *419:io_in[36] 0.00112533
3 *30:13 0.00320568
4 *30:11 0.00208035
5 *30:9 0.0795617
6 *30:7 0.0795617
7 *30:5 0.0433947
8 *30:13 *31:13 0.144014
9 *30:13 *77:15 0.130551
10 *26:13 *30:13 0.000648071
11 *27:13 *30:13 0.000873975
12 *29:13 *30:13 0.0145496
*RES
1 io_in[36] *30:5 308.446 
2 *30:5 *30:7 4.5 
3 *30:7 *30:9 574.856 
4 *30:9 *30:11 4.5 
5 *30:11 *30:13 119.05 
6 *30:13 *419:io_in[36] 20.0659 
*END

*D_NET *31 0.489355
*CONN
*P io_in[37] I
*I *419:io_in[37] I *D wrapped_as2650
*CAP
1 io_in[37] 0.0400797
2 *419:io_in[37] 0.00106749
3 *31:13 0.0229381
4 *31:11 0.0218706
5 *31:9 0.0875023
6 *31:7 0.0875023
7 *31:5 0.0400797
8 *31:13 *37:25 0
9 *31:13 *50:9 0.0102636
10 *31:13 *66:17 0.0116605
11 *31:13 *76:9 0.000509156
12 *31:13 *77:15 0.00170074
13 *31:13 *86:11 0.000869685
14 *31:13 *95:9 0.0125168
15 *31:13 *101:15 0
16 *31:13 *114:9 0.0067802
17 *12:23 *31:13 0
18 *30:13 *31:13 0.144014
*RES