*SPEF "ieee 1481-1999"
*DESIGN "user_project_wrapper"
*DATE "11:11:11 Fri 11 11, 1111"
*VENDOR "OpenRCX"
*PROGRAM "Parallel Extraction"
*VERSION "1.0"
*DESIGN_FLOW "NAME_SCOPE LOCAL" "PIN_CAP NONE"
*DIVIDER /
*DELIMITER :
*BUS_DELIMITER []
*T_UNIT 1 NS
*C_UNIT 1 PF
*R_UNIT 1 OHM
*L_UNIT 1 HENRY

*NAME_MAP
*1 io_in[0]
*2 io_in[10]
*3 io_in[11]
*4 io_in[12]
*5 io_in[13]
*6 io_in[14]
*7 io_in[15]
*8 io_in[16]
*9 io_in[17]
*10 io_in[18]
*11 io_in[19]
*12 io_in[1]
*13 io_in[20]
*14 io_in[21]
*15 io_in[22]
*16 io_in[23]
*17 io_in[24]
*18 io_in[25]
*19 io_in[26]
*20 io_in[27]
*21 io_in[28]
*22 io_in[29]
*23 io_in[2]
*24 io_in[30]
*25 io_in[31]
*26 io_in[32]
*27 io_in[33]
*28 io_in[34]
*29 io_in[35]
*30 io_in[36]
*31 io_in[37]
*32 io_in[3]
*33 io_in[4]
*34 io_in[5]
*35 io_in[6]
*36 io_in[7]
*37 io_in[8]
*38 io_in[9]
*39 io_oeb[0]
*40 io_oeb[10]
*41 io_oeb[11]
*42 io_oeb[12]
*43 io_oeb[13]
*44 io_oeb[14]
*45 io_oeb[15]
*46 io_oeb[16]
*47 io_oeb[17]
*48 io_oeb[18]
*49 io_oeb[19]
*50 io_oeb[1]
*51 io_oeb[20]
*52 io_oeb[21]
*53 io_oeb[22]
*54 io_oeb[23]
*55 io_oeb[24]
*56 io_oeb[25]
*57 io_oeb[26]
*58 io_oeb[27]
*59 io_oeb[28]
*60 io_oeb[29]
*61 io_oeb[2]
*62 io_oeb[30]
*63 io_oeb[31]
*64 io_oeb[32]
*65 io_oeb[33]
*66 io_oeb[34]
*67 io_oeb[35]
*68 io_oeb[36]
*69 io_oeb[37]
*70 io_oeb[3]
*71 io_oeb[4]
*72 io_oeb[5]
*73 io_oeb[6]
*74 io_oeb[7]
*75 io_oeb[8]
*76 io_oeb[9]
*77 io_out[0]
*78 io_out[10]
*79 io_out[11]
*80 io_out[12]
*81 io_out[13]
*82 io_out[14]
*83 io_out[15]
*84 io_out[16]
*85 io_out[17]
*86 io_out[18]
*87 io_out[19]
*88 io_out[1]
*89 io_out[20]
*90 io_out[21]
*91 io_out[22]
*92 io_out[23]
*93 io_out[24]
*94 io_out[25]
*95 io_out[26]
*96 io_out[27]
*97 io_out[28]
*98 io_out[29]
*99 io_out[2]
*100 io_out[30]
*101 io_out[31]
*102 io_out[32]
*103 io_out[33]
*104 io_out[34]
*105 io_out[35]
*106 io_out[36]
*107 io_out[37]
*108 io_out[3]
*109 io_out[4]
*110 io_out[5]
*111 io_out[6]
*112 io_out[7]
*113 io_out[8]
*114 io_out[9]
*115 la_data_in[0]
*116 la_data_in[10]
*117 la_data_in[11]
*118 la_data_in[12]
*119 la_data_in[13]
*120 la_data_in[14]
*121 la_data_in[15]
*122 la_data_in[16]
*123 la_data_in[17]
*124 la_data_in[18]
*125 la_data_in[19]
*126 la_data_in[1]
*127 la_data_in[20]
*128 la_data_in[21]
*129 la_data_in[22]
*130 la_data_in[23]
*131 la_data_in[24]
*132 la_data_in[25]
*133 la_data_in[26]
*134 la_data_in[27]
*135 la_data_in[28]
*136 la_data_in[29]
*137 la_data_in[2]
*138 la_data_in[30]
*139 la_data_in[31]
*140 la_data_in[32]
*141 la_data_in[33]
*142 la_data_in[34]
*143 la_data_in[35]
*144 la_data_in[36]
*145 la_data_in[37]
*146 la_data_in[38]
*147 la_data_in[39]
*148 la_data_in[3]
*149 la_data_in[40]
*150 la_data_in[41]
*151 la_data_in[42]
*152 la_data_in[43]
*153 la_data_in[44]
*154 la_data_in[45]
*155 la_data_in[46]
*156 la_data_in[47]
*157 la_data_in[48]
*158 la_data_in[49]
*159 la_data_in[4]
*160 la_data_in[50]
*161 la_data_in[51]
*162 la_data_in[52]
*163 la_data_in[53]
*164 la_data_in[54]
*165 la_data_in[55]
*166 la_data_in[56]
*167 la_data_in[57]
*168 la_data_in[58]
*169 la_data_in[59]
*170 la_data_in[5]
*171 la_data_in[60]
*172 la_data_in[61]
*173 la_data_in[62]
*174 la_data_in[63]
*175 la_data_in[6]
*176 la_data_in[7]
*177 la_data_in[8]
*178 la_data_in[9]
*179 la_data_out[0]
*180 la_data_out[10]
*181 la_data_out[11]
*182 la_data_out[12]
*183 la_data_out[13]
*184 la_data_out[14]
*185 la_data_out[15]
*186 la_data_out[16]
*187 la_data_out[17]
*188 la_data_out[18]
*189 la_data_out[19]
*190 la_data_out[1]
*191 la_data_out[20]
*192 la_data_out[21]
*193 la_data_out[22]
*194 la_data_out[23]
*195 la_data_out[24]
*196 la_data_out[25]
*197 la_data_out[26]
*198 la_data_out[27]
*199 la_data_out[28]
*200 la_data_out[29]
*201 la_data_out[2]
*202 la_data_out[30]
*203 la_data_out[31]
*204 la_data_out[32]
*205 la_data_out[33]
*206 la_data_out[34]
*207 la_data_out[35]
*208 la_data_out[36]
*209 la_data_out[37]
*210 la_data_out[38]
*211 la_data_out[39]
*212 la_data_out[3]
*213 la_data_out[40]
*214 la_data_out[41]
*215 la_data_out[42]
*216 la_data_out[43]
*217 la_data_out[44]
*218 la_data_out[45]
*219 la_data_out[46]
*220 la_data_out[47]
*221 la_data_out[48]
*222 la_data_out[49]
*223 la_data_out[4]
*224 la_data_out[50]
*225 la_data_out[51]
*226 la_data_out[52]
*227 la_data_out[53]
*228 la_data_out[54]
*229 la_data_out[55]
*230 la_data_out[56]
*231 la_data_out[57]
*232 la_data_out[58]
*233 la_data_out[59]
*234 la_data_out[5]
*235 la_data_out[60]
*236 la_data_out[61]
*237 la_data_out[62]
*238 la_data_out[63]
*239 la_data_out[6]
*240 la_data_out[7]
*241 la_data_out[8]
*242 la_data_out[9]
*243 la_oenb[0]
*244 la_oenb[10]
*245 la_oenb[11]
*246 la_oenb[12]
*247 la_oenb[13]
*248 la_oenb[14]
*249 la_oenb[15]
*250 la_oenb[16]
*251 la_oenb[17]
*252 la_oenb[18]
*253 la_oenb[19]
*254 la_oenb[1]
*255 la_oenb[20]
*256 la_oenb[21]
*257 la_oenb[22]
*258 la_oenb[23]
*259 la_oenb[24]
*260 la_oenb[25]
*261 la_oenb[26]
*262 la_oenb[27]
*263 la_oenb[28]
*264 la_oenb[29]
*265 la_oenb[2]
*266 la_oenb[30]
*267 la_oenb[31]
*268 la_oenb[32]
*269 la_oenb[33]
*270 la_oenb[34]
*271 la_oenb[35]
*272 la_oenb[36]
*273 la_oenb[37]
*274 la_oenb[38]
*275 la_oenb[39]
*276 la_oenb[3]
*277 la_oenb[40]
*278 la_oenb[41]
*279 la_oenb[42]
*280 la_oenb[43]
*281 la_oenb[44]
*282 la_oenb[45]
*283 la_oenb[46]
*284 la_oenb[47]
*285 la_oenb[48]
*286 la_oenb[49]
*287 la_oenb[4]
*288 la_oenb[50]
*289 la_oenb[51]
*290 la_oenb[52]
*291 la_oenb[53]
*292 la_oenb[54]
*293 la_oenb[55]
*294 la_oenb[56]
*295 la_oenb[57]
*296 la_oenb[58]
*297 la_oenb[59]
*298 la_oenb[5]
*299 la_oenb[60]
*300 la_oenb[61]
*301 la_oenb[62]
*302 la_oenb[63]
*303 la_oenb[6]
*304 la_oenb[7]
*305 la_oenb[8]
*306 la_oenb[9]
*307 user_clock2
*308 user_irq[0]
*309 user_irq[1]
*310 user_irq[2]
*313 wb_clk_i
*314 wb_rst_i
*315 wbs_ack_o
*316 wbs_adr_i[0]
*317 wbs_adr_i[10]
*318 wbs_adr_i[11]
*319 wbs_adr_i[12]
*320 wbs_adr_i[13]
*321 wbs_adr_i[14]
*322 wbs_adr_i[15]
*323 wbs_adr_i[16]
*324 wbs_adr_i[17]
*325 wbs_adr_i[18]
*326 wbs_adr_i[19]
*327 wbs_adr_i[1]
*328 wbs_adr_i[20]
*329 wbs_adr_i[21]
*330 wbs_adr_i[22]
*331 wbs_adr_i[23]
*332 wbs_adr_i[24]
*333 wbs_adr_i[25]
*334 wbs_adr_i[26]
*335 wbs_adr_i[27]
*336 wbs_adr_i[28]
*337 wbs_adr_i[29]
*338 wbs_adr_i[2]
*339 wbs_adr_i[30]
*340 wbs_adr_i[31]
*341 wbs_adr_i[3]
*342 wbs_adr_i[4]
*343 wbs_adr_i[5]
*344 wbs_adr_i[6]
*345 wbs_adr_i[7]
*346 wbs_adr_i[8]
*347 wbs_adr_i[9]
*348 wbs_cyc_i
*349 wbs_dat_i[0]
*350 wbs_dat_i[10]
*351 wbs_dat_i[11]
*352 wbs_dat_i[12]
*353 wbs_dat_i[13]
*354 wbs_dat_i[14]
*355 wbs_dat_i[15]
*356 wbs_dat_i[16]
*357 wbs_dat_i[17]
*358 wbs_dat_i[18]
*359 wbs_dat_i[19]
*360 wbs_dat_i[1]
*361 wbs_dat_i[20]
*362 wbs_dat_i[21]
*363 wbs_dat_i[22]
*364 wbs_dat_i[23]
*365 wbs_dat_i[24]
*366 wbs_dat_i[25]
*367 wbs_dat_i[26]
*368 wbs_dat_i[27]
*369 wbs_dat_i[28]
*370 wbs_dat_i[29]
*371 wbs_dat_i[2]
*372 wbs_dat_i[30]
*373 wbs_dat_i[31]
*374 wbs_dat_i[3]
*375 wbs_dat_i[4]
*376 wbs_dat_i[5]
*377 wbs_dat_i[6]
*378 wbs_dat_i[7]
*379 wbs_dat_i[8]
*380 wbs_dat_i[9]
*381 wbs_dat_o[0]
*382 wbs_dat_o[10]
*383 wbs_dat_o[11]
*384 wbs_dat_o[12]
*385 wbs_dat_o[13]
*386 wbs_dat_o[14]
*387 wbs_dat_o[15]
*388 wbs_dat_o[16]
*389 wbs_dat_o[17]
*390 wbs_dat_o[18]
*391 wbs_dat_o[19]
*392 wbs_dat_o[1]
*393 wbs_dat_o[20]
*394 wbs_dat_o[21]
*395 wbs_dat_o[22]
*396 wbs_dat_o[23]
*397 wbs_dat_o[24]
*398 wbs_dat_o[25]
*399 wbs_dat_o[26]
*400 wbs_dat_o[27]
*401 wbs_dat_o[28]
*402 wbs_dat_o[29]
*403 wbs_dat_o[2]
*404 wbs_dat_o[30]
*405 wbs_dat_o[31]
*406 wbs_dat_o[3]
*407 wbs_dat_o[4]
*408 wbs_dat_o[5]
*409 wbs_dat_o[6]
*410 wbs_dat_o[7]
*411 wbs_dat_o[8]
*412 wbs_dat_o[9]
*413 wbs_sel_i[0]
*414 wbs_sel_i[1]
*415 wbs_sel_i[2]
*416 wbs_sel_i[3]
*417 wbs_stb_i
*418 wbs_we_i
*419 avali_logo
*420 wrapped_as2650

*PORTS
io_in[0] I
io_in[10] I
io_in[11] I
io_in[12] I
io_in[13] I
io_in[14] I
io_in[15] I
io_in[16] I
io_in[17] I
io_in[18] I
io_in[19] I
io_in[1] I
io_in[20] I
io_in[21] I
io_in[22] I
io_in[23] I
io_in[24] I
io_in[25] I
io_in[26] I
io_in[27] I
io_in[28] I
io_in[29] I
io_in[2] I
io_in[30] I
io_in[31] I
io_in[32] I
io_in[33] I
io_in[34] I
io_in[35] I
io_in[36] I
io_in[37] I
io_in[3] I
io_in[4] I
io_in[5] I
io_in[6] I
io_in[7] I
io_in[8] I
io_in[9] I
io_oeb[0] O
io_oeb[10] O
io_oeb[11] O
io_oeb[12] O
io_oeb[13] O
io_oeb[14] O
io_oeb[15] O
io_oeb[16] O
io_oeb[17] O
io_oeb[18] O
io_oeb[19] O
io_oeb[1] O
io_oeb[20] O
io_oeb[21] O
io_oeb[22] O
io_oeb[23] O
io_oeb[24] O
io_oeb[25] O
io_oeb[26] O
io_oeb[27] O
io_oeb[28] O
io_oeb[29] O
io_oeb[2] O
io_oeb[30] O
io_oeb[31] O
io_oeb[32] O
io_oeb[33] O
io_oeb[34] O
io_oeb[35] O
io_oeb[36] O
io_oeb[37] O
io_oeb[3] O
io_oeb[4] O
io_oeb[5] O
io_oeb[6] O
io_oeb[7] O
io_oeb[8] O
io_oeb[9] O
io_out[0] O
io_out[10] O
io_out[11] O
io_out[12] O
io_out[13] O
io_out[14] O
io_out[15] O
io_out[16] O
io_out[17] O
io_out[18] O
io_out[19] O
io_out[1] O
io_out[20] O
io_out[21] O
io_out[22] O
io_out[23] O
io_out[24] O
io_out[25] O
io_out[26] O
io_out[27] O
io_out[28] O
io_out[29] O
io_out[2] O
io_out[30] O
io_out[31] O
io_out[32] O
io_out[33] O
io_out[34] O
io_out[35] O
io_out[36] O
io_out[37] O
io_out[3] O
io_out[4] O
io_out[5] O
io_out[6] O
io_out[7] O
io_out[8] O
io_out[9] O
la_data_in[0] I
la_data_in[10] I
la_data_in[11] I
la_data_in[12] I
la_data_in[13] I
la_data_in[14] I
la_data_in[15] I
la_data_in[16] I
la_data_in[17] I
la_data_in[18] I
la_data_in[19] I
la_data_in[1] I
la_data_in[20] I
la_data_in[21] I
la_data_in[22] I
la_data_in[23] I
la_data_in[24] I
la_data_in[25] I
la_data_in[26] I
la_data_in[27] I
la_data_in[28] I
la_data_in[29] I
la_data_in[2] I
la_data_in[30] I
la_data_in[31] I
la_data_in[32] I
la_data_in[33] I
la_data_in[34] I
la_data_in[35] I
la_data_in[36] I
la_data_in[37] I
la_data_in[38] I
la_data_in[39] I
la_data_in[3] I
la_data_in[40] I
la_data_in[41] I
la_data_in[42] I
la_data_in[43] I
la_data_in[44] I
la_data_in[45] I
la_data_in[46] I
la_data_in[47] I
la_data_in[48] I
la_data_in[49] I
la_data_in[4] I
la_data_in[50] I
la_data_in[51] I
la_data_in[52] I
la_data_in[53] I
la_data_in[54] I
la_data_in[55] I
la_data_in[56] I
la_data_in[57] I
la_data_in[58] I
la_data_in[59] I
la_data_in[5] I
la_data_in[60] I
la_data_in[61] I
la_data_in[62] I
la_data_in[63] I
la_data_in[6] I
la_data_in[7] I
la_data_in[8] I
la_data_in[9] I
la_data_out[0] O
la_data_out[10] O
la_data_out[11] O
la_data_out[12] O
la_data_out[13] O
la_data_out[14] O
la_data_out[15] O
la_data_out[16] O
la_data_out[17] O
la_data_out[18] O
la_data_out[19] O
la_data_out[1] O
la_data_out[20] O
la_data_out[21] O
la_data_out[22] O
la_data_out[23] O
la_data_out[24] O
la_data_out[25] O
la_data_out[26] O
la_data_out[27] O
la_data_out[28] O
la_data_out[29] O
la_data_out[2] O
la_data_out[30] O
la_data_out[31] O
la_data_out[32] O
la_data_out[33] O
la_data_out[34] O
la_data_out[35] O
la_data_out[36] O
la_data_out[37] O
la_data_out[38] O
la_data_out[39] O
la_data_out[3] O
la_data_out[40] O
la_data_out[41] O
la_data_out[42] O
la_data_out[43] O
la_data_out[44] O
la_data_out[45] O
la_data_out[46] O
la_data_out[47] O
la_data_out[48] O
la_data_out[49] O
la_data_out[4] O
la_data_out[50] O
la_data_out[51] O
la_data_out[52] O
la_data_out[53] O
la_data_out[54] O
la_data_out[55] O
la_data_out[56] O
la_data_out[57] O
la_data_out[58] O
la_data_out[59] O
la_data_out[5] O
la_data_out[60] O
la_data_out[61] O
la_data_out[62] O
la_data_out[63] O
la_data_out[6] O
la_data_out[7] O
la_data_out[8] O
la_data_out[9] O
la_oenb[0] I
la_oenb[10] I
la_oenb[11] I
la_oenb[12] I
la_oenb[13] I
la_oenb[14] I
la_oenb[15] I
la_oenb[16] I
la_oenb[17] I
la_oenb[18] I
la_oenb[19] I
la_oenb[1] I
la_oenb[20] I
la_oenb[21] I
la_oenb[22] I
la_oenb[23] I
la_oenb[24] I
la_oenb[25] I
la_oenb[26] I
la_oenb[27] I
la_oenb[28] I
la_oenb[29] I
la_oenb[2] I
la_oenb[30] I
la_oenb[31] I
la_oenb[32] I
la_oenb[33] I
la_oenb[34] I
la_oenb[35] I
la_oenb[36] I
la_oenb[37] I
la_oenb[38] I
la_oenb[39] I
la_oenb[3] I
la_oenb[40] I
la_oenb[41] I
la_oenb[42] I
la_oenb[43] I
la_oenb[44] I
la_oenb[45] I
la_oenb[46] I
la_oenb[47] I
la_oenb[48] I
la_oenb[49] I
la_oenb[4] I
la_oenb[50] I
la_oenb[51] I
la_oenb[52] I
la_oenb[53] I
la_oenb[54] I
la_oenb[55] I
la_oenb[56] I
la_oenb[57] I
la_oenb[58] I
la_oenb[59] I
la_oenb[5] I
la_oenb[60] I
la_oenb[61] I
la_oenb[62] I
la_oenb[63] I
la_oenb[6] I
la_oenb[7] I
la_oenb[8] I
la_oenb[9] I
user_clock2 I
user_irq[0] O
user_irq[1] O
user_irq[2] O
wb_clk_i I
wb_rst_i I
wbs_ack_o O
wbs_adr_i[0] I
wbs_adr_i[10] I
wbs_adr_i[11] I
wbs_adr_i[12] I
wbs_adr_i[13] I
wbs_adr_i[14] I
wbs_adr_i[15] I
wbs_adr_i[16] I
wbs_adr_i[17] I
wbs_adr_i[18] I
wbs_adr_i[19] I
wbs_adr_i[1] I
wbs_adr_i[20] I
wbs_adr_i[21] I
wbs_adr_i[22] I
wbs_adr_i[23] I
wbs_adr_i[24] I
wbs_adr_i[25] I
wbs_adr_i[26] I
wbs_adr_i[27] I
wbs_adr_i[28] I
wbs_adr_i[29] I
wbs_adr_i[2] I
wbs_adr_i[30] I
wbs_adr_i[31] I
wbs_adr_i[3] I
wbs_adr_i[4] I
wbs_adr_i[5] I
wbs_adr_i[6] I
wbs_adr_i[7] I
wbs_adr_i[8] I
wbs_adr_i[9] I
wbs_cyc_i I
wbs_dat_i[0] I
wbs_dat_i[10] I
wbs_dat_i[11] I
wbs_dat_i[12] I
wbs_dat_i[13] I
wbs_dat_i[14] I
wbs_dat_i[15] I
wbs_dat_i[16] I
wbs_dat_i[17] I
wbs_dat_i[18] I
wbs_dat_i[19] I
wbs_dat_i[1] I
wbs_dat_i[20] I
wbs_dat_i[21] I
wbs_dat_i[22] I
wbs_dat_i[23] I
wbs_dat_i[24] I
wbs_dat_i[25] I
wbs_dat_i[26] I
wbs_dat_i[27] I
wbs_dat_i[28] I
wbs_dat_i[29] I
wbs_dat_i[2] I
wbs_dat_i[30] I
wbs_dat_i[31] I
wbs_dat_i[3] I
wbs_dat_i[4] I
wbs_dat_i[5] I
wbs_dat_i[6] I
wbs_dat_i[7] I
wbs_dat_i[8] I
wbs_dat_i[9] I
wbs_dat_o[0] O
wbs_dat_o[10] O
wbs_dat_o[11] O
wbs_dat_o[12] O
wbs_dat_o[13] O
wbs_dat_o[14] O
wbs_dat_o[15] O
wbs_dat_o[16] O
wbs_dat_o[17] O
wbs_dat_o[18] O
wbs_dat_o[19] O
wbs_dat_o[1] O
wbs_dat_o[20] O
wbs_dat_o[21] O
wbs_dat_o[22] O
wbs_dat_o[23] O
wbs_dat_o[24] O
wbs_dat_o[25] O
wbs_dat_o[26] O
wbs_dat_o[27] O
wbs_dat_o[28] O
wbs_dat_o[29] O
wbs_dat_o[2] O
wbs_dat_o[30] O
wbs_dat_o[31] O
wbs_dat_o[3] O
wbs_dat_o[4] O
wbs_dat_o[5] O
wbs_dat_o[6] O
wbs_dat_o[7] O
wbs_dat_o[8] O
wbs_dat_o[9] O
wbs_sel_i[0] I
wbs_sel_i[1] I
wbs_sel_i[2] I
wbs_sel_i[3] I
wbs_stb_i I
wbs_we_i I

*D_NET *1 0.422874
*CONN
*P io_in[0] I
*I *420:io_in[0] I *D wrapped_as2650
*CAP
1 io_in[0] 0.0599037
2 *420:io_in[0] 0.000304283
3 *1:13 0.00348023
4 *1:11 0.00317595
5 *1:9 0.0590891
6 *1:7 0.0590891
7 *1:5 0.0599037
8 *1:5 la_data_out[14] 0
9 *1:13 *12:13 0.0207779
10 *1:13 *23:13 0.00524708
11 *1:13 *25:13 0.0701033
12 *1:13 *28:13 0.0768835
13 *1:13 *32:13 0.00491573
*RES
1 io_in[0] *1:5 421.99 
2 *1:5 *1:7 4.5 
3 *1:7 *1:9 398.924 
4 *1:9 *1:11 4.5 
5 *1:11 *1:13 270.94 
6 *1:13 *420:io_in[0] 6.058 
*END

*D_NET *2 0.221956
*CONN
*P io_in[10] I
*I *420:io_in[10] I *D wrapped_as2650
*CAP
1 io_in[10] 0.0899206
2 *420:io_in[10] 0.0210575
3 *2:7 0.0210575
4 *2:5 0.0899206
*RES
1 io_in[10] *2:5 638.134 
2 *2:5 *2:7 4.5 
3 *2:7 *420:io_in[10] 140.79 
*END

*D_NET *3 0.236058
*CONN
*P io_in[11] I
*I *420:io_in[11] I *D wrapped_as2650
*CAP
1 io_in[11] 0.00180293
2 *420:io_in[11] 0.00303662
3 *3:13 0.0903746
4 *3:11 0.087338
5 *3:9 0.0258513
6 *3:7 0.0276542
7 *3:9 *38:11 0
*RES
1 io_in[11] *3:7 16.09 
2 *3:7 *3:9 176.396 
3 *3:9 *3:11 4.5 
4 *3:11 *3:13 621.148 
5 *3:13 *420:io_in[11] 22.778 
*END

*D_NET *4 0.250167
*CONN
*P io_in[12] I
*I *420:io_in[12] I *D wrapped_as2650
*CAP
1 io_in[12] 0.0882218
2 *420:io_in[12] 0.0368618
3 *4:7 0.0368618
4 *4:5 0.0882218
*RES
1 io_in[12] *4:5 627.19 
2 *4:5 *4:7 4.5 
3 *4:7 *420:io_in[12] 248.406 
*END

*D_NET *5 0.264226
*CONN
*P io_in[13] I
*I *420:io_in[13] I *D wrapped_as2650
*CAP
1 io_in[13] 0.0874236
2 *420:io_in[13] 0.0446894
3 *5:7 0.0446894
4 *5:5 0.0874236
5 *420:io_in[13] *90:17 0
*RES
1 io_in[13] *5:5 621.718 
2 *5:5 *5:7 4.5 
3 *5:7 *420:io_in[13] 302.214 
*END

*D_NET *6 0.278996
*CONN
*P io_in[14] I
*I *420:io_in[14] I *D wrapped_as2650
*CAP
1 io_in[14] 0.00209029
2 *420:io_in[14] 0.0291533
3 *6:15 0.0291533
4 *6:13 0.0848741
5 *6:11 0.0848741
6 *6:9 0.0233805
7 *6:7 0.0254708
*RES
1 io_in[14] *6:7 16.09 
2 *6:7 *6:9 159.98 
3 *6:9 *6:11 4.5 
4 *6:11 *6:13 604.732 
5 *6:13 *6:15 4.5 
6 *6:15 *420:io_in[14] 196.118 
*END

*D_NET *7 0.50705
*CONN
*P io_in[15] I
*I *420:io_in[15] I *D wrapped_as2650
*CAP
1 io_in[15] 0.0573943
2 *420:io_in[15] 0.00162472
3 *7:9 0.0298557
4 *7:7 0.028231
5 *7:5 0.0573943
6 *7:9 *45:13 0.2221
7 *7:9 *48:13 0.110449
*RES
1 io_in[15] *7:5 392.198 
2 *7:5 *7:7 4.5 
3 *7:7 *7:9 595.916 
4 *7:9 *420:io_in[15] 13.81 
*END

*D_NET *8 0.258955
*CONN
*P io_in[16] I
*I *420:io_in[16] I *D wrapped_as2650
*CAP
1 io_in[16] 0.0547104
2 *420:io_in[16] 0.00438546
3 *8:9 0.0747673
4 *8:7 0.0703818
5 *8:5 0.0547104
*RES
1 io_in[16] *8:5 374.11 
2 *8:5 *8:7 4.5 
3 *8:7 *8:9 500.612 
4 *8:9 *420:io_in[16] 31.898 
*END

*D_NET *9 0.232275
*CONN
*P io_in[17] I
*I *420:io_in[17] I *D wrapped_as2650
*CAP
1 io_in[17] 0.0503645
2 *420:io_in[17] 0.00876979
3 *9:11 0.00876979
4 *9:9 0.0570032
5 *9:7 0.0570032
6 *9:5 0.0503645
*RES
1 io_in[17] *9:5 344.47 
2 *9:5 *9:7 4.5 
3 *9:7 *9:9 405.308 
4 *9:9 *9:11 4.5 
5 *9:11 *420:io_in[17] 57.038 
*END

*D_NET *10 0.335204
*CONN
*P io_in[18] I
*I *420:io_in[18] I *D wrapped_as2650
*CAP
1 io_in[18] 0.0571047
2 *420:io_in[18] 0.00199121
3 *10:9 0.0131443
4 *10:7 0.0111531
5 *10:5 0.0571047
6 *10:9 *44:10 0.128356
7 *10:9 *49:13 0.0663506
*RES
1 io_in[18] *10:5 389.918 
2 *10:5 *10:7 4.5 
3 *10:7 *10:9 310.004 
4 *10:9 *420:io_in[18] 16.09 
*END

*D_NET *11 0.202299
*CONN
*P io_in[19] I
*I *420:io_in[19] I *D wrapped_as2650
*CAP
1 io_in[19] 0.0577939
2 *420:io_in[19] 0.00132761
3 *11:9 0.0172635
4 *11:7 0.0159359
5 *11:5 0.0577939
6 *11:9 *19:13 0.0158816
7 *11:9 *46:13 0.0363026
*RES
1 io_in[19] *11:5 394.174 
2 *11:5 *11:7 4.5 
3 *11:7 *11:9 214.7 
4 *11:9 *420:io_in[19] 11.834 
*END

*D_NET *12 0.349343
*CONN
*P io_in[1] I
*I *420:io_in[1] I *D wrapped_as2650
*CAP
1 io_in[1] 0.00176189
2 *420:io_in[1] 0.000247723
3 *12:13 0.0709181
4 *12:11 0.0706704
5 *12:9 0.0504151
6 *12:7 0.052177
7 *12:13 *25:13 0.0678165
8 *12:13 *32:13 0
9 *12:13 *84:13 0
10 *12:13 *85:13 0
11 *12:13 *86:13 0.00523349
12 *12:13 *87:13 0.0080922
13 *12:13 *90:13 0.00123239
14 *1:13 *12:13 0.0207779
*RES
1 io_in[1] *12:7 16.09 
2 *12:7 *12:9 344.508 
3 *12:9 *12:11 4.5 
4 *12:11 *12:13 675.868 
5 *12:13 *420:io_in[1] 5.754 
*END

*D_NET *13 0.151913
*CONN
*P io_in[20] I
*I *420:io_in[20] I *D wrapped_as2650
*CAP
1 io_in[20] 0.00136189
2 *420:io_in[20] 0.0578976
3 *13:11 0.0578976
4 *13:9 0.0166972
5 *13:7 0.0180591
*RES
1 io_in[20] *13:7 13.81 
2 *13:7 *13:9 119.396 
3 *13:9 *13:11 4.5 
4 *13:11 *420:io_in[20] 392.198 
*END

*D_NET *14 0.125161
*CONN
*P io_in[21] I
*I *420:io_in[21] I *D wrapped_as2650
*CAP
1 io_in[21] 0.0541539
2 *420:io_in[21] 0.0050928
3 *14:11 0.00842651
4 *14:5 0.0574876
5 *14:11 *37:5 0
*RES
1 io_in[21] *14:5 369.55 
2 *14:5 *14:11 33.092 
3 *14:11 *420:io_in[21] 31.958 
*END

*D_NET *15 0.138802
*CONN
*P io_in[22] I
*I *420:io_in[22] I *D wrapped_as2650
*CAP
1 io_in[22] 0.0456813
2 *420:io_in[22] 0.0135013
3 *15:11 0.0135013
4 *15:9 0.0102185
5 *15:7 0.0102185
6 *15:5 0.0456813
*RES
1 io_in[22] *15:5 312.55 
2 *15:5 *15:7 4.5 
3 *15:7 *15:9 71.364 
4 *15:9 *15:11 4.5 
5 *15:11 *420:io_in[22] 88.958 
*END

*D_NET *16 0.203833
*CONN
*P io_in[23] I
*I *420:io_in[23] I *D wrapped_as2650
*CAP
1 io_in[23] 0.0549111
2 *420:io_in[23] 0.00409214
3 *16:9 0.0182063
4 *16:7 0.0141142
5 *16:5 0.0549111
6 *16:9 *81:13 0.0575982
*RES
1 io_in[23] *16:5 376.238 
2 *16:5 *16:7 4.5 
3 *16:7 *16:9 166.668 
4 *16:9 *420:io_in[23] 29.77 
*END

*D_NET *17 0.184493
*CONN
*P io_in[24] I
*I *420:io_in[24] I *D wrapped_as2650
*CAP
1 io_in[24] 0.0347027
2 *420:io_in[24] 0.0575439
3 *17:7 0.0575439
4 *17:5 0.0347027
*RES
1 io_in[24] *17:5 246.43 
2 *17:5 *17:7 4.5 
3 *17:7 *420:io_in[24] 389.918 
*END

*D_NET *18 0.16991
*CONN
*P io_in[25] I
*I *420:io_in[25] I *D wrapped_as2650
*CAP
1 io_in[25] 0.00141849
2 *420:io_in[25] 0.00845459
3 *18:15 0.00845459
4 *18:13 0.0344503
5 *18:11 0.0344503
6 *18:9 0.0406318
7 *18:7 0.0420502
8 *18:9 *21:11 0
*RES
1 io_in[25] *18:7 14.266 
2 *18:7 *18:9 277.78 
3 *18:9 *18:11 4.5 
4 *18:11 *18:13 242.212 
5 *18:13 *18:15 4.5 
6 *18:15 *420:io_in[25] 54.758 
*END

*D_NET *19 0.230903
*CONN
*P io_in[26] I
*I *420:io_in[26] I *D wrapped_as2650
*CAP
1 io_in[26] 0.00404593
2 *420:io_in[26] 0.0014359
3 *19:13 0.0149216
4 *19:11 0.0134857
5 *19:9 0.0391616
6 *19:7 0.0432075
7 *19:13 *46:13 0.0624104
8 *19:13 *52:13 0.0363526
9 *11:9 *19:13 0.0158816
*RES
1 io_in[26] *19:7 32.506 
2 *19:7 *19:9 267.9 
3 *19:9 *19:11 4.5 
4 *19:11 *19:13 229.444 
5 *19:13 *420:io_in[26] 11.682 
*END

*D_NET *20 0.1696
*CONN
*P io_in[27] I
*I *420:io_in[27] I *D wrapped_as2650
*CAP
1 io_in[27] 0.0455571
2 *420:io_in[27] 0.0392427
3 *20:7 0.0392427
4 *20:5 0.0455571
*RES
1 io_in[27] *20:5 262.846 
2 *20:5 *20:7 4.5 
3 *20:7 *420:io_in[27] 217.55 
*END

*D_NET *21 0.16913
*CONN
*P io_in[28] I
*I *420:io_in[28] I *D wrapped_as2650
*CAP
1 io_in[28] 0.00195176
2 *420:io_in[28] 0.0234869
3 *21:15 0.0234869
4 *21:13 0.0256565
5 *21:11 0.0276083
6 *21:13 *78:13 0.0669391
7 *18:9 *21:11 0
*RES
1 io_in[28] *21:11 20.362 
2 *21:11 *21:13 259.692 
3 *21:13 *21:15 4.5 
4 *21:15 *420:io_in[28] 157.51 
*END

*D_NET *22 0.108846
*CONN
*P io_in[29] I
*I *420:io_in[29] I *D wrapped_as2650
*CAP
1 io_in[29] 0.0389807
2 *420:io_in[29] 0.0154421
3 *22:7 0.0154421
4 *22:5 0.0389807
*RES
1 io_in[29] *22:5 273.79 
2 *22:5 *22:7 4.5 
3 *22:7 *420:io_in[29] 102.638 
*END

*D_NET *23 0.379123
*CONN
*P io_in[2] I
*I *420:io_in[2] I *D wrapped_as2650
*CAP
1 io_in[2] 0.0683927
2 *420:io_in[2] 0.000386487
3 *23:13 0.0015887
4 *23:11 0.00120221
5 *23:9 0.0435482
6 *23:7 0.0435482
7 *23:5 0.0683927
8 *23:9 *179:11 0
9 *23:9 *212:15 0
10 *23:9 *223:15 0
11 *23:9 *239:15 0
12 *23:9 *310:11 0
13 *23:13 *27:13 0.0701033
14 *23:13 *28:13 0.072319
15 *23:13 *32:13 0.0043943
16 *1:13 *23:13 0.00524708
*RES
1 io_in[2] *23:5 481.27 
2 *23:5 *23:7 4.5 
3 *23:7 *23:9 291.612 
4 *23:9 *23:11 4.5 
5 *23:11 *23:13 200.716 
6 *23:13 *420:io_in[2] 6.362 
*END

*D_NET *24 0.0936436
*CONN
*P io_in[30] I
*I *420:io_in[30] I *D wrapped_as2650
*CAP
1 io_in[30] 0.0398201
2 *420:io_in[30] 0.00700168
3 *24:5 0.0468218
*RES
1 io_in[30] *24:5 279.262 
2 *24:5 *420:io_in[30] 49.682 
*END

*D_NET *25 0.179859
*CONN
*P io_in[31] I
*I *420:io_in[31] I *D wrapped_as2650
*CAP
1 io_in[31] 0.00331269
2 *420:io_in[31] 0.00025677
3 *25:13 0.014293
4 *25:11 0.0173489
5 *25:13 *28:13 0.0054232
6 *25:13 *84:13 0
7 *25:13 *86:13 0.00130201
8 *25:13 *90:13 2.1659e-06
9 *1:13 *25:13 0.0701033
10 *12:13 *25:13 0.0678165
*RES
1 io_in[31] *25:11 31.154 
2 *25:11 *25:13 276.108 
3 *25:13 *420:io_in[31] 5.906 
*END

*D_NET *26 0.192768
*CONN
*P io_in[32] I
*I *420:io_in[32] I *D wrapped_as2650
*CAP
1 io_in[32] 0.0145549
2 *420:io_in[32] 0.000417392
3 *26:13 0.0053246
4 *26:11 0.0049072
5 *26:9 0.00970558
6 *26:7 0.00970558
7 *26:5 0.0145549
8 *26:9 *47:9 0
9 *26:9 *84:9 0.00224411
10 *26:13 *27:13 0.0780807
11 *26:13 *30:13 0
12 *26:13 *32:13 0.0532727
13 *26:13 *33:17 0
*RES
1 io_in[32] *26:5 100.966 
2 *26:5 *26:7 4.5 
3 *26:7 *26:9 71.972 
4 *26:9 *26:11 4.5 
5 *26:11 *26:13 189.316 
6 *26:13 *420:io_in[32] 6.666 
*END

*D_NET *27 0.22449
*CONN
*P io_in[33] I
*I *420:io_in[33] I *D wrapped_as2650
*CAP
1 io_in[33] 0.0141489
2 *420:io_in[33] 0.000382701
3 *27:13 0.00139103
4 *27:11 0.00100833
5 *27:9 0.0192972
6 *27:7 0.0192972
7 *27:5 0.0141489
8 *27:13 *28:13 0.00549228
9 *27:13 *32:13 0.00113965
10 *23:13 *27:13 0.0701033
11 *26:13 *27:13 0.0780807
*RES
1 io_in[33] *27:5 98.686 
2 *27:5 *27:7 4.5 
3 *27:7 *27:9 129.276 
4 *27:9 *27:11 4.5 
5 *27:11 *27:13 197.068 
6 *27:13 *420:io_in[33] 6.514 
*END

*D_NET *28 0.24516
*CONN
*P io_in[34] I
*I *420:io_in[34] I *D wrapped_as2650
*CAP
1 io_in[34] 0.0124795
2 *420:io_in[34] 0.000313319
3 *28:13 0.00233677
4 *28:11 0.00202345
5 *28:9 0.0277049
6 *28:7 0.0277049
7 *28:5 0.0124795
8 *1:13 *28:13 0.0768835
9 *23:13 *28:13 0.072319
10 *25:13 *28:13 0.0054232
11 *27:13 *28:13 0.00549228
*RES
1 io_in[34] *28:5 87.286 
2 *28:5 *28:7 4.5 
3 *28:7 *28:9 186.428 
4 *28:9 *28:11 4.5 
5 *28:11 *28:13 213.94 
6 *28:13 *420:io_in[34] 6.21 
*END

*D_NET *29 0.284062
*CONN
*P io_in[35] I
*I *420:io_in[35] I *D wrapped_as2650
*CAP
1 io_in[35] 0.0115374
2 *420:io_in[35] 0.000705429
3 *29:13 0.00554221
4 *29:11 0.00483678
5 *29:9 0.0285519
6 *29:7 0.0285519
7 *29:5 0.0115374
8 *29:9 *53:9 0.0150149
9 *29:9 *91:9 0.0157134
10 *29:13 *31:13 0.0931971
11 *29:13 *32:23 0.0010412
12 *29:13 *34:13 0.0678322
*RES
1 io_in[35] *29:5 80.446 
2 *29:5 *29:7 4.5 
3 *29:7 *29:9 246.164 
4 *29:9 *29:11 4.5 
5 *29:11 *29:13 226.252 
6 *29:13 *420:io_in[35] 8.49 
*END

*D_NET *30 0.291381
*CONN
*P io_in[36] I
*I *420:io_in[36] I *D wrapped_as2650
*CAP
1 io_in[36] 0.00247053
2 *420:io_in[36] 0.000636047
3 *30:13 0.0143812
4 *30:11 0.0137451
5 *30:9 0.0444649
6 *30:7 0.0469354
7 *30:13 *31:13 0.0964186
8 *30:13 *33:17 0.0723291
9 *26:13 *30:13 0
*RES
1 io_in[36] *30:7 21.106 
2 *30:7 *30:9 303.316 
3 *30:9 *30:11 4.5 
4 *30:11 *30:13 295.564 
5 *30:13 *420:io_in[36] 8.186 
*END

*D_NET *31 0.325242
*CONN
*P io_in[37] I
*I *420:io_in[37] I *D wrapped_as2650
*CAP
1 io_in[37] 0.0111871
2 *420:io_in[37] 0.000657904
3 *31:13 0.00174879
4 *31:11 0.00109089
5 *31:9 0.0531629
6 *31:7 0.0531629
7 *31:5 0.0111871
8 *31:5 *392:17 0
9 *31:13 *33:17 0.00113965
10 *31:13 *34:13 0.00228884
11 *29:13 *31:13 0.0931971
12 *30:13 *31:13 0.0964186
*RES
1 io_in[37] *31:5 78.166 
2 *31:5 *31:7 4.5 
3 *31:7 *31:9 360.924 
4 *31:9 *31:11 4.5 
5 *31:11 *31:13 239.476 
6 *31:13 *420:io_in[37] 8.338 
*END

*D_NET *32 0.314998
*CONN
*P io_in[3] I
*I *420:io_in[3] I *D wrapped_as2650
*CAP
1 io_in[3] 0.00105752
2 *420:io_in[3] 0.000857038
3 *32:23 0.00392268
4 *32:13 0.0799842
5 *32:11 0.0769186
6 *32:9 0.0348402
7 *32:7 0.0358978
8 *32:7 *61:10 1.7684e-05
9 *32:9 io_oeb[4] 0.00151751
10 *32:9 *35:11 0.000157377
11 *32:9 *73:19 0.00344756
12 *32:9 *99:14 0.00636472
13 *32:13 *33:17 0
14 *32:23 *34:13 0.000799563
15 *32:23 *35:21 0.00113965
16 *32:23 *36:13 0.00331214
17 *1:13 *32:13 0.00491573
18 *12:13 *32:13 0
19 *23:13 *32:13 0.0043943
20 *26:13 *32:13 0.0532727
21 *27:13 *32:13 0.00113965
22 *29:13 *32:23 0.0010412
*RES
1 io_in[3] *32:7 11.53 
2 *32:7 *32:9 237.956 
3 *32:9 *32:11 4.5 
4 *32:11 *32:13 639.692 
5 *32:13 *32:23 45.724 
6 *32:23 *420:io_in[3] 4.598 
*END

*D_NET *33 0.294542
*CONN
*P io_in[4] I
*I *420:io_in[4] I *D wrapped_as2650
*CAP
1 io_in[4] 0.00265353
2 *420:io_in[4] 0.000723748
3 *33:17 0.0800491
4 *33:15 0.0793253
5 *33:13 0.0270954
6 *33:11 0.029749
7 *33:13 user_irq[2] 0
8 *33:17 *34:13 0.00120048
9 *33:17 *35:21 0.000190363
10 *33:17 *36:13 8.5955e-05
11 *26:13 *33:17 0
12 *30:13 *33:17 0.0723291
13 *31:13 *33:17 0.00113965
14 *32:13 *33:17 0
*RES
1 io_in[4] *33:11 19.13 
2 *33:11 *33:13 184.756 
3 *33:13 *33:15 4.5 
4 *33:15 *33:17 657.172 
5 *33:17 *420:io_in[4] 8.034 
*END

*D_NET *34 0.327565
*CONN
*P io_in[5] I
*I *420:io_in[5] I *D wrapped_as2650
*CAP
1 io_in[5] 0.0659269
2 *420:io_in[5] 0.000804264
3 *34:13 0.00170838
4 *34:11 0.000904118
5 *34:9 0.0201017
6 *34:7 0.0201017
7 *34:5 0.0659269
8 *34:5 *184:5 0.00507735
9 *34:9 *310:11 0
10 *34:13 *35:21 0.0748924
11 *29:13 *34:13 0.0678322
12 *31:13 *34:13 0.00228884
13 *32:23 *34:13 0.000799563
14 *33:17 *34:13 0.00120048
*RES
1 io_in[5] *34:5 478.99 
2 *34:5 *34:7 4.5 
3 *34:7 *34:9 132.468 
4 *34:9 *34:11 4.5 
5 *34:11 *34:13 186.58 
6 *34:13 *420:io_in[5] 8.642 
*END

*D_NET *35 0.311432
*CONN
*P io_in[6] I
*I *420:io_in[6] I *D wrapped_as2650
*CAP
1 io_in[6] 0.001262
2 *420:io_in[6] 0.000838955
3 *35:21 0.00144683
4 *35:19 0.000607872
5 *35:17 0.0117599
6 *35:15 0.0117599
7 *35:13 0.0662735
8 *35:11 0.0675355
9 *35:13 *208:7 0
10 *35:13 *209:5 0
11 *35:21 *36:13 0.0735676
12 *32:9 *35:11 0.000157377
13 *32:23 *35:21 0.00113965
14 *33:17 *35:21 0.000190363
15 *34:13 *35:21 0.0748924
*RES
1 io_in[6] *35:11 17.778 
2 *35:11 *35:13 469.3 
3 *35:13 *35:15 4.5 
4 *35:15 *35:17 77.292 
5 *35:17 *35:19 4.5 
6 *35:19 *35:21 183.388 
7 *35:21 *420:io_in[6] 8.794 
*END

*D_NET *36 0.245397
*CONN
*P io_in[7] I
*I *420:io_in[7] I *D wrapped_as2650
*CAP
1 io_in[7] 0.0665695
2 *420:io_in[7] 0.000873646
3 *36:13 0.0134737
4 *36:11 0.016497
5 *36:5 0.0704664
6 *36:5 *232:9 0.000551476
7 *32:23 *36:13 0.00331214
8 *33:17 *36:13 8.5955e-05
9 *35:21 *36:13 0.0735676
*RES
1 io_in[7] *36:5 474.43 
2 *36:5 *36:11 34.156 
3 *36:11 *36:13 180.196 
4 *36:13 *420:io_in[7] 8.946 
*END

*D_NET *37 0.193553
*CONN
*P io_in[8] I
*I *420:io_in[8] I *D wrapped_as2650
*CAP
1 io_in[8] 0.0915089
2 *420:io_in[8] 0.00526776
3 *37:5 0.0967767
4 *14:11 *37:5 0
*RES
1 io_in[8] *37:5 649.078 
2 *37:5 *420:io_in[8] 37.674 
*END

*D_NET *38 0.208416
*CONN
*P io_in[9] I
*I *420:io_in[9] I *D wrapped_as2650
*CAP
1 io_in[9] 0.00232841
2 *420:io_in[9] 0.0127877
3 *38:15 0.0127877
4 *38:13 0.0890917
5 *38:11 0.0914201
6 *3:9 *38:11 0
*RES
1 io_in[9] *38:11 22.186 
2 *38:11 *38:13 633.156 
3 *38:13 *38:15 4.5 
4 *38:15 *420:io_in[9] 84.398 
*END

*D_NET *39 0.359895
*CONN
*P io_oeb[0] O
*I *420:io_oeb[0] O *D wrapped_as2650
*CAP
1 io_oeb[0] 0.100403
2 *420:io_oeb[0] 0.000290649
3 *39:11 0.100403
4 *39:9 0.0197957
5 *39:7 0.0200864
6 io_oeb[0] *229:13 0
7 io_oeb[0] *382:17 0
8 io_oeb[0] *389:9 0
9 io_oeb[0] *407:9 0
10 *39:9 *50:9 0.0942956
11 *39:9 *78:9 0.0246216
*RES
1 *420:io_oeb[0] *39:7 6.362 
2 *39:7 *39:9 281.124 
3 *39:9 *39:11 4.5 
4 *39:11 io_oeb[0] 701.518 
*END

*D_NET *40 0.348502
*CONN
*P io_oeb[10] O
*I *420:io_oeb[10] O *D wrapped_as2650
*CAP
1 io_oeb[10] 0.0984357
2 *420:io_oeb[10] 0
3 *40:8 0.0984357
4 *40:6 0.0128449
5 *40:4 0.0128449
6 *40:6 *41:6 0.09691
7 *40:6 *42:6 0.00147815
8 *40:6 *44:6 0.000634686
9 *40:6 *45:9 0.00246596
10 *40:6 *51:9 0.000125235
11 *40:6 *112:6 0.0243269
*RES
1 *420:io_oeb[10] *40:4 4.5 
2 *40:4 *40:6 235.828 
3 *40:6 *40:8 4.5 
4 *40:8 io_oeb[10] 699.542 
*END

*D_NET *41 0.347551
*CONN
*P io_oeb[11] O
*I *420:io_oeb[11] O *D wrapped_as2650
*CAP
1 io_oeb[11] 0.0984355
2 *420:io_oeb[11] 0
3 *41:8 0.0984355
4 *41:6 0.0261086
5 *41:4 0.0261086
6 *41:6 *85:9 0.00155248
7 *40:6 *41:6 0.09691
*RES