*SPEF "ieee 1481-1999"
*DESIGN "user_project_wrapper"
*DATE "11:11:11 Fri 11 11, 1111"
*VENDOR "OpenRCX"
*PROGRAM "Parallel Extraction"
*VERSION "1.0"
*DESIGN_FLOW "NAME_SCOPE LOCAL" "PIN_CAP NONE"
*DIVIDER /
*DELIMITER :
*BUS_DELIMITER []
*T_UNIT 1 NS
*C_UNIT 1 PF
*R_UNIT 1 OHM
*L_UNIT 1 HENRY

*NAME_MAP
*1 io_in[0]
*2 io_in[10]
*3 io_in[11]
*4 io_in[12]
*5 io_in[13]
*6 io_in[14]
*7 io_in[15]
*8 io_in[16]
*9 io_in[17]
*10 io_in[18]
*11 io_in[19]
*12 io_in[1]
*13 io_in[20]
*14 io_in[21]
*15 io_in[22]
*16 io_in[23]
*17 io_in[24]
*18 io_in[25]
*19 io_in[26]
*20 io_in[27]
*21 io_in[28]
*22 io_in[29]
*23 io_in[2]
*24 io_in[30]
*25 io_in[31]
*26 io_in[32]
*27 io_in[33]
*28 io_in[34]
*29 io_in[35]
*30 io_in[36]
*31 io_in[37]
*32 io_in[3]
*33 io_in[4]
*34 io_in[5]
*35 io_in[6]
*36 io_in[7]
*37 io_in[8]
*38 io_in[9]
*39 io_oeb[0]
*40 io_oeb[10]
*41 io_oeb[11]
*42 io_oeb[12]
*43 io_oeb[13]
*44 io_oeb[14]
*45 io_oeb[15]
*46 io_oeb[16]
*47 io_oeb[17]
*48 io_oeb[18]
*49 io_oeb[19]
*50 io_oeb[1]
*51 io_oeb[20]
*52 io_oeb[21]
*53 io_oeb[22]
*54 io_oeb[23]
*55 io_oeb[24]
*56 io_oeb[25]
*57 io_oeb[26]
*58 io_oeb[27]
*59 io_oeb[28]
*60 io_oeb[29]
*61 io_oeb[2]
*62 io_oeb[30]
*63 io_oeb[31]
*64 io_oeb[32]
*65 io_oeb[33]
*66 io_oeb[34]
*67 io_oeb[35]
*68 io_oeb[36]
*69 io_oeb[37]
*70 io_oeb[3]
*71 io_oeb[4]
*72 io_oeb[5]
*73 io_oeb[6]
*74 io_oeb[7]
*75 io_oeb[8]
*76 io_oeb[9]
*77 io_out[0]
*78 io_out[10]
*79 io_out[11]
*80 io_out[12]
*81 io_out[13]
*82 io_out[14]
*83 io_out[15]
*84 io_out[16]
*85 io_out[17]
*86 io_out[18]
*87 io_out[19]
*88 io_out[1]
*89 io_out[20]
*90 io_out[21]
*91 io_out[22]
*92 io_out[23]
*93 io_out[24]
*94 io_out[25]
*95 io_out[26]
*96 io_out[27]
*97 io_out[28]
*98 io_out[29]
*99 io_out[2]
*100 io_out[30]
*101 io_out[31]
*102 io_out[32]
*103 io_out[33]
*104 io_out[34]
*105 io_out[35]
*106 io_out[36]
*107 io_out[37]
*108 io_out[3]
*109 io_out[4]
*110 io_out[5]
*111 io_out[6]
*112 io_out[7]
*113 io_out[8]
*114 io_out[9]
*115 la_data_in[0]
*116 la_data_in[10]
*117 la_data_in[11]
*118 la_data_in[12]
*119 la_data_in[13]
*120 la_data_in[14]
*121 la_data_in[15]
*122 la_data_in[16]
*123 la_data_in[17]
*124 la_data_in[18]
*125 la_data_in[19]
*126 la_data_in[1]
*127 la_data_in[20]
*128 la_data_in[21]
*129 la_data_in[22]
*130 la_data_in[23]
*131 la_data_in[24]
*132 la_data_in[25]
*133 la_data_in[26]
*134 la_data_in[27]
*135 la_data_in[28]
*136 la_data_in[29]
*137 la_data_in[2]
*138 la_data_in[30]
*139 la_data_in[31]
*140 la_data_in[32]
*141 la_data_in[33]
*142 la_data_in[34]
*143 la_data_in[35]
*144 la_data_in[36]
*145 la_data_in[37]
*146 la_data_in[38]
*147 la_data_in[39]
*148 la_data_in[3]
*149 la_data_in[40]
*150 la_data_in[41]
*151 la_data_in[42]
*152 la_data_in[43]
*153 la_data_in[44]
*154 la_data_in[45]
*155 la_data_in[46]
*156 la_data_in[47]
*157 la_data_in[48]
*158 la_data_in[49]
*159 la_data_in[4]
*160 la_data_in[50]
*161 la_data_in[51]
*162 la_data_in[52]
*163 la_data_in[53]
*164 la_data_in[54]
*165 la_data_in[55]
*166 la_data_in[56]
*167 la_data_in[57]
*168 la_data_in[58]
*169 la_data_in[59]
*170 la_data_in[5]
*171 la_data_in[60]
*172 la_data_in[61]
*173 la_data_in[62]
*174 la_data_in[63]
*175 la_data_in[6]
*176 la_data_in[7]
*177 la_data_in[8]
*178 la_data_in[9]
*179 la_data_out[0]
*180 la_data_out[10]
*181 la_data_out[11]
*182 la_data_out[12]
*183 la_data_out[13]
*184 la_data_out[14]
*185 la_data_out[15]
*186 la_data_out[16]
*187 la_data_out[17]
*188 la_data_out[18]
*189 la_data_out[19]
*190 la_data_out[1]
*191 la_data_out[20]
*192 la_data_out[21]
*193 la_data_out[22]
*194 la_data_out[23]
*195 la_data_out[24]
*196 la_data_out[25]
*197 la_data_out[26]
*198 la_data_out[27]
*199 la_data_out[28]
*200 la_data_out[29]
*201 la_data_out[2]
*202 la_data_out[30]
*203 la_data_out[31]
*204 la_data_out[32]
*205 la_data_out[33]
*206 la_data_out[34]
*207 la_data_out[35]
*208 la_data_out[36]
*209 la_data_out[37]
*210 la_data_out[38]
*211 la_data_out[39]
*212 la_data_out[3]
*213 la_data_out[40]
*214 la_data_out[41]
*215 la_data_out[42]
*216 la_data_out[43]
*217 la_data_out[44]
*218 la_data_out[45]
*219 la_data_out[46]
*220 la_data_out[47]
*221 la_data_out[48]
*222 la_data_out[49]
*223 la_data_out[4]
*224 la_data_out[50]
*225 la_data_out[51]
*226 la_data_out[52]
*227 la_data_out[53]
*228 la_data_out[54]
*229 la_data_out[55]
*230 la_data_out[56]
*231 la_data_out[57]
*232 la_data_out[58]
*233 la_data_out[59]
*234 la_data_out[5]
*235 la_data_out[60]
*236 la_data_out[61]
*237 la_data_out[62]
*238 la_data_out[63]
*239 la_data_out[6]
*240 la_data_out[7]
*241 la_data_out[8]
*242 la_data_out[9]
*243 la_oenb[0]
*244 la_oenb[10]
*245 la_oenb[11]
*246 la_oenb[12]
*247 la_oenb[13]
*248 la_oenb[14]
*249 la_oenb[15]
*250 la_oenb[16]
*251 la_oenb[17]
*252 la_oenb[18]
*253 la_oenb[19]
*254 la_oenb[1]
*255 la_oenb[20]
*256 la_oenb[21]
*257 la_oenb[22]
*258 la_oenb[23]
*259 la_oenb[24]
*260 la_oenb[25]
*261 la_oenb[26]
*262 la_oenb[27]
*263 la_oenb[28]
*264 la_oenb[29]
*265 la_oenb[2]
*266 la_oenb[30]
*267 la_oenb[31]
*268 la_oenb[32]
*269 la_oenb[33]
*270 la_oenb[34]
*271 la_oenb[35]
*272 la_oenb[36]
*273 la_oenb[37]
*274 la_oenb[38]
*275 la_oenb[39]
*276 la_oenb[3]
*277 la_oenb[40]
*278 la_oenb[41]
*279 la_oenb[42]
*280 la_oenb[43]
*281 la_oenb[44]
*282 la_oenb[45]
*283 la_oenb[46]
*284 la_oenb[47]
*285 la_oenb[48]
*286 la_oenb[49]
*287 la_oenb[4]
*288 la_oenb[50]
*289 la_oenb[51]
*290 la_oenb[52]
*291 la_oenb[53]
*292 la_oenb[54]
*293 la_oenb[55]
*294 la_oenb[56]
*295 la_oenb[57]
*296 la_oenb[58]
*297 la_oenb[59]
*298 la_oenb[5]
*299 la_oenb[60]
*300 la_oenb[61]
*301 la_oenb[62]
*302 la_oenb[63]
*303 la_oenb[6]
*304 la_oenb[7]
*305 la_oenb[8]
*306 la_oenb[9]
*307 user_clock2
*308 user_irq[0]
*309 user_irq[1]
*310 user_irq[2]
*313 wb_clk_i
*314 wb_rst_i
*315 wbs_ack_o
*316 wbs_adr_i[0]
*317 wbs_adr_i[10]
*318 wbs_adr_i[11]
*319 wbs_adr_i[12]
*320 wbs_adr_i[13]
*321 wbs_adr_i[14]
*322 wbs_adr_i[15]
*323 wbs_adr_i[16]
*324 wbs_adr_i[17]
*325 wbs_adr_i[18]
*326 wbs_adr_i[19]
*327 wbs_adr_i[1]
*328 wbs_adr_i[20]
*329 wbs_adr_i[21]
*330 wbs_adr_i[22]
*331 wbs_adr_i[23]
*332 wbs_adr_i[24]
*333 wbs_adr_i[25]
*334 wbs_adr_i[26]
*335 wbs_adr_i[27]
*336 wbs_adr_i[28]
*337 wbs_adr_i[29]
*338 wbs_adr_i[2]
*339 wbs_adr_i[30]
*340 wbs_adr_i[31]
*341 wbs_adr_i[3]
*342 wbs_adr_i[4]
*343 wbs_adr_i[5]
*344 wbs_adr_i[6]
*345 wbs_adr_i[7]
*346 wbs_adr_i[8]
*347 wbs_adr_i[9]
*348 wbs_cyc_i
*349 wbs_dat_i[0]
*350 wbs_dat_i[10]
*351 wbs_dat_i[11]
*352 wbs_dat_i[12]
*353 wbs_dat_i[13]
*354 wbs_dat_i[14]
*355 wbs_dat_i[15]
*356 wbs_dat_i[16]
*357 wbs_dat_i[17]
*358 wbs_dat_i[18]
*359 wbs_dat_i[19]
*360 wbs_dat_i[1]
*361 wbs_dat_i[20]
*362 wbs_dat_i[21]
*363 wbs_dat_i[22]
*364 wbs_dat_i[23]
*365 wbs_dat_i[24]
*366 wbs_dat_i[25]
*367 wbs_dat_i[26]
*368 wbs_dat_i[27]
*369 wbs_dat_i[28]
*370 wbs_dat_i[29]
*371 wbs_dat_i[2]
*372 wbs_dat_i[30]
*373 wbs_dat_i[31]
*374 wbs_dat_i[3]
*375 wbs_dat_i[4]
*376 wbs_dat_i[5]
*377 wbs_dat_i[6]
*378 wbs_dat_i[7]
*379 wbs_dat_i[8]
*380 wbs_dat_i[9]
*381 wbs_dat_o[0]
*382 wbs_dat_o[10]
*383 wbs_dat_o[11]
*384 wbs_dat_o[12]
*385 wbs_dat_o[13]
*386 wbs_dat_o[14]
*387 wbs_dat_o[15]
*388 wbs_dat_o[16]
*389 wbs_dat_o[17]
*390 wbs_dat_o[18]
*391 wbs_dat_o[19]
*392 wbs_dat_o[1]
*393 wbs_dat_o[20]
*394 wbs_dat_o[21]
*395 wbs_dat_o[22]
*396 wbs_dat_o[23]
*397 wbs_dat_o[24]
*398 wbs_dat_o[25]
*399 wbs_dat_o[26]
*400 wbs_dat_o[27]
*401 wbs_dat_o[28]
*402 wbs_dat_o[29]
*403 wbs_dat_o[2]
*404 wbs_dat_o[30]
*405 wbs_dat_o[31]
*406 wbs_dat_o[3]
*407 wbs_dat_o[4]
*408 wbs_dat_o[5]
*409 wbs_dat_o[6]
*410 wbs_dat_o[7]
*411 wbs_dat_o[8]
*412 wbs_dat_o[9]
*413 wbs_sel_i[0]
*414 wbs_sel_i[1]
*415 wbs_sel_i[2]
*416 wbs_sel_i[3]
*417 wbs_stb_i
*418 wbs_we_i
*419 wrapped_as2650

*PORTS
io_in[0] I
io_in[10] I
io_in[11] I
io_in[12] I
io_in[13] I
io_in[14] I
io_in[15] I
io_in[16] I
io_in[17] I
io_in[18] I
io_in[19] I
io_in[1] I
io_in[20] I
io_in[21] I
io_in[22] I
io_in[23] I
io_in[24] I
io_in[25] I
io_in[26] I
io_in[27] I
io_in[28] I
io_in[29] I
io_in[2] I
io_in[30] I
io_in[31] I
io_in[32] I
io_in[33] I
io_in[34] I
io_in[35] I
io_in[36] I
io_in[37] I
io_in[3] I
io_in[4] I
io_in[5] I
io_in[6] I
io_in[7] I
io_in[8] I
io_in[9] I
io_oeb[0] O
io_oeb[10] O
io_oeb[11] O
io_oeb[12] O
io_oeb[13] O
io_oeb[14] O
io_oeb[15] O
io_oeb[16] O
io_oeb[17] O
io_oeb[18] O
io_oeb[19] O
io_oeb[1] O
io_oeb[20] O
io_oeb[21] O
io_oeb[22] O
io_oeb[23] O
io_oeb[24] O
io_oeb[25] O
io_oeb[26] O
io_oeb[27] O
io_oeb[28] O
io_oeb[29] O
io_oeb[2] O
io_oeb[30] O
io_oeb[31] O
io_oeb[32] O
io_oeb[33] O
io_oeb[34] O
io_oeb[35] O
io_oeb[36] O
io_oeb[37] O
io_oeb[3] O
io_oeb[4] O
io_oeb[5] O
io_oeb[6] O
io_oeb[7] O
io_oeb[8] O
io_oeb[9] O
io_out[0] O
io_out[10] O
io_out[11] O
io_out[12] O
io_out[13] O
io_out[14] O
io_out[15] O
io_out[16] O
io_out[17] O
io_out[18] O
io_out[19] O
io_out[1] O
io_out[20] O
io_out[21] O
io_out[22] O
io_out[23] O
io_out[24] O
io_out[25] O
io_out[26] O
io_out[27] O
io_out[28] O
io_out[29] O
io_out[2] O
io_out[30] O
io_out[31] O
io_out[32] O
io_out[33] O
io_out[34] O
io_out[35] O
io_out[36] O
io_out[37] O
io_out[3] O
io_out[4] O
io_out[5] O
io_out[6] O
io_out[7] O
io_out[8] O
io_out[9] O
la_data_in[0] I
la_data_in[10] I
la_data_in[11] I
la_data_in[12] I
la_data_in[13] I
la_data_in[14] I
la_data_in[15] I
la_data_in[16] I
la_data_in[17] I
la_data_in[18] I
la_data_in[19] I
la_data_in[1] I
la_data_in[20] I
la_data_in[21] I
la_data_in[22] I
la_data_in[23] I
la_data_in[24] I
la_data_in[25] I
la_data_in[26] I
la_data_in[27] I
la_data_in[28] I
la_data_in[29] I
la_data_in[2] I
la_data_in[30] I
la_data_in[31] I
la_data_in[32] I
la_data_in[33] I
la_data_in[34] I
la_data_in[35] I
la_data_in[36] I
la_data_in[37] I
la_data_in[38] I
la_data_in[39] I
la_data_in[3] I
la_data_in[40] I
la_data_in[41] I
la_data_in[42] I
la_data_in[43] I
la_data_in[44] I
la_data_in[45] I
la_data_in[46] I
la_data_in[47] I
la_data_in[48] I
la_data_in[49] I
la_data_in[4] I
la_data_in[50] I
la_data_in[51] I
la_data_in[52] I
la_data_in[53] I
la_data_in[54] I
la_data_in[55] I
la_data_in[56] I
la_data_in[57] I
la_data_in[58] I
la_data_in[59] I
la_data_in[5] I
la_data_in[60] I
la_data_in[61] I
la_data_in[62] I
la_data_in[63] I
la_data_in[6] I
la_data_in[7] I
la_data_in[8] I
la_data_in[9] I
la_data_out[0] O
la_data_out[10] O
la_data_out[11] O
la_data_out[12] O
la_data_out[13] O
la_data_out[14] O
la_data_out[15] O
la_data_out[16] O
la_data_out[17] O
la_data_out[18] O
la_data_out[19] O
la_data_out[1] O
la_data_out[20] O
la_data_out[21] O
la_data_out[22] O
la_data_out[23] O
la_data_out[24] O
la_data_out[25] O
la_data_out[26] O
la_data_out[27] O
la_data_out[28] O
la_data_out[29] O
la_data_out[2] O
la_data_out[30] O
la_data_out[31] O
la_data_out[32] O
la_data_out[33] O
la_data_out[34] O
la_data_out[35] O
la_data_out[36] O
la_data_out[37] O
la_data_out[38] O
la_data_out[39] O
la_data_out[3] O
la_data_out[40] O
la_data_out[41] O
la_data_out[42] O
la_data_out[43] O
la_data_out[44] O
la_data_out[45] O
la_data_out[46] O
la_data_out[47] O
la_data_out[48] O
la_data_out[49] O
la_data_out[4] O
la_data_out[50] O
la_data_out[51] O
la_data_out[52] O
la_data_out[53] O
la_data_out[54] O
la_data_out[55] O
la_data_out[56] O
la_data_out[57] O
la_data_out[58] O
la_data_out[59] O
la_data_out[5] O
la_data_out[60] O
la_data_out[61] O
la_data_out[62] O
la_data_out[63] O
la_data_out[6] O
la_data_out[7] O
la_data_out[8] O
la_data_out[9] O
la_oenb[0] I
la_oenb[10] I
la_oenb[11] I
la_oenb[12] I
la_oenb[13] I
la_oenb[14] I
la_oenb[15] I
la_oenb[16] I
la_oenb[17] I
la_oenb[18] I
la_oenb[19] I
la_oenb[1] I
la_oenb[20] I
la_oenb[21] I
la_oenb[22] I
la_oenb[23] I
la_oenb[24] I
la_oenb[25] I
la_oenb[26] I
la_oenb[27] I
la_oenb[28] I
la_oenb[29] I
la_oenb[2] I
la_oenb[30] I
la_oenb[31] I
la_oenb[32] I
la_oenb[33] I
la_oenb[34] I
la_oenb[35] I
la_oenb[36] I
la_oenb[37] I
la_oenb[38] I
la_oenb[39] I
la_oenb[3] I
la_oenb[40] I
la_oenb[41] I
la_oenb[42] I
la_oenb[43] I
la_oenb[44] I
la_oenb[45] I
la_oenb[46] I
la_oenb[47] I
la_oenb[48] I
la_oenb[49] I
la_oenb[4] I
la_oenb[50] I
la_oenb[51] I
la_oenb[52] I
la_oenb[53] I
la_oenb[54] I
la_oenb[55] I
la_oenb[56] I
la_oenb[57] I
la_oenb[58] I
la_oenb[59] I
la_oenb[5] I
la_oenb[60] I
la_oenb[61] I
la_oenb[62] I
la_oenb[63] I
la_oenb[6] I
la_oenb[7] I
la_oenb[8] I
la_oenb[9] I
user_clock2 I
user_irq[0] O
user_irq[1] O
user_irq[2] O
wb_clk_i I
wb_rst_i I
wbs_ack_o O
wbs_adr_i[0] I
wbs_adr_i[10] I
wbs_adr_i[11] I
wbs_adr_i[12] I
wbs_adr_i[13] I
wbs_adr_i[14] I
wbs_adr_i[15] I
wbs_adr_i[16] I
wbs_adr_i[17] I
wbs_adr_i[18] I
wbs_adr_i[19] I
wbs_adr_i[1] I
wbs_adr_i[20] I
wbs_adr_i[21] I
wbs_adr_i[22] I
wbs_adr_i[23] I
wbs_adr_i[24] I
wbs_adr_i[25] I
wbs_adr_i[26] I
wbs_adr_i[27] I
wbs_adr_i[28] I
wbs_adr_i[29] I
wbs_adr_i[2] I
wbs_adr_i[30] I
wbs_adr_i[31] I
wbs_adr_i[3] I
wbs_adr_i[4] I
wbs_adr_i[5] I
wbs_adr_i[6] I
wbs_adr_i[7] I
wbs_adr_i[8] I
wbs_adr_i[9] I
wbs_cyc_i I
wbs_dat_i[0] I
wbs_dat_i[10] I
wbs_dat_i[11] I
wbs_dat_i[12] I
wbs_dat_i[13] I
wbs_dat_i[14] I
wbs_dat_i[15] I
wbs_dat_i[16] I
wbs_dat_i[17] I
wbs_dat_i[18] I
wbs_dat_i[19] I
wbs_dat_i[1] I
wbs_dat_i[20] I
wbs_dat_i[21] I
wbs_dat_i[22] I
wbs_dat_i[23] I
wbs_dat_i[24] I
wbs_dat_i[25] I
wbs_dat_i[26] I
wbs_dat_i[27] I
wbs_dat_i[28] I
wbs_dat_i[29] I
wbs_dat_i[2] I
wbs_dat_i[30] I
wbs_dat_i[31] I
wbs_dat_i[3] I
wbs_dat_i[4] I
wbs_dat_i[5] I
wbs_dat_i[6] I
wbs_dat_i[7] I
wbs_dat_i[8] I
wbs_dat_i[9] I
wbs_dat_o[0] O
wbs_dat_o[10] O
wbs_dat_o[11] O
wbs_dat_o[12] O
wbs_dat_o[13] O
wbs_dat_o[14] O
wbs_dat_o[15] O
wbs_dat_o[16] O
wbs_dat_o[17] O
wbs_dat_o[18] O
wbs_dat_o[19] O
wbs_dat_o[1] O
wbs_dat_o[20] O
wbs_dat_o[21] O
wbs_dat_o[22] O
wbs_dat_o[23] O
wbs_dat_o[24] O
wbs_dat_o[25] O
wbs_dat_o[26] O
wbs_dat_o[27] O
wbs_dat_o[28] O
wbs_dat_o[29] O
wbs_dat_o[2] O
wbs_dat_o[30] O
wbs_dat_o[31] O
wbs_dat_o[3] O
wbs_dat_o[4] O
wbs_dat_o[5] O
wbs_dat_o[6] O
wbs_dat_o[7] O
wbs_dat_o[8] O
wbs_dat_o[9] O
wbs_sel_i[0] I
wbs_sel_i[1] I
wbs_sel_i[2] I
wbs_sel_i[3] I
wbs_stb_i I
wbs_we_i I

*D_NET *1 0.642698
*CONN
*P io_in[0] I
*I *419:io_in[0] I *D wrapped_as2650
*CAP
1 io_in[0] 0.0286905
2 *419:io_in[0] 0.000837139
3 *1:13 0.0063493
4 *1:11 0.00551217
5 *1:9 0.103323
6 *1:7 0.103323
7 *1:5 0.0286905
8 *1:5 *217:17 0
9 *1:5 *219:17 0.0032407
10 *1:5 *221:17 0
11 *1:9 *41:13 0.0042617
12 *1:13 *2:13 0.0133084
13 *1:13 *12:21 0.187438
14 *1:13 *63:15 0.152341
15 *1:13 *77:17 0
16 *1:13 *78:9 0.00322275
17 *1:13 *104:9 0.000859999
18 *1:13 *111:13 0.00129903
*RES
1 io_in[0] *1:5 259.22 
2 *1:5 *1:7 4.5 
3 *1:7 *1:9 917.046 
4 *1:9 *1:11 4.5 
5 *1:11 *1:13 169.165 
6 *1:13 *419:io_in[0] 19.142 
*END

*D_NET *2 0.313906
*CONN
*P io_in[10] I
*I *419:io_in[10] I *D wrapped_as2650
*CAP
1 io_in[10] 0.0298582
2 *419:io_in[10] 0.000937374
3 *2:13 0.00474733
4 *2:11 0.00380996
5 *2:9 0.0217406
6 *2:7 0.0217406
7 *2:5 0.0298582
8 *2:13 *419:io_in[28] 0.00816234
9 *2:13 *23:21 0.0191973
10 *2:13 *58:9 0.0186514
11 *2:13 *65:9 0.0180397
12 *2:13 *76:9 0.11797
13 *2:13 *78:9 0.00588431
14 *1:13 *2:13 0.0133084
*RES
1 io_in[10] *2:5 256.1 
2 *2:5 *2:7 4.5 
3 *2:7 *2:9 180.856 
4 *2:9 *2:11 4.5 
5 *2:11 *2:13 298.168 
6 *2:13 *419:io_in[10] 10.168 
*END

*D_NET *3 0.244639
*CONN
*P io_in[11] I
*I *419:io_in[11] I *D wrapped_as2650
*CAP
1 io_in[11] 0.0306323
2 *419:io_in[11] 0.000684225
3 *3:13 0.0185809
4 *3:11 0.0178967
5 *3:9 0.0110455
6 *3:7 0.0110455
7 *3:5 0.0306323
8 *3:9 *4:11 0.0108542
9 *3:9 *32:9 0.00850555
10 *3:13 *20:13 0.044245
11 *3:13 *76:9 0
12 *3:13 *79:9 0.0126735
13 *3:13 *107:11 0
14 *3:13 *111:17 0.0101525
15 *3:13 *114:17 0.0376916
*RES
1 io_in[11] *3:5 262.34 
2 *3:5 *3:7 4.5 
3 *3:7 *3:9 105.352 
4 *3:9 *3:11 4.5 
5 *3:11 *3:13 281.944 
6 *3:13 *419:io_in[11] 8.296 
*END

*D_NET *4 0.304092
*CONN
*P io_in[12] I
*I *419:io_in[12] I *D wrapped_as2650
*CAP
1 io_in[12] 0.0306346
2 *419:io_in[12] 0
3 *4:13 0.00033177
4 *4:11 0.00209581
5 *4:5 0.0323987
6 *4:11 *32:9 0.000872546
7 *4:13 *32:13 0.00300573
8 *4:13 *36:13 0.108927
9 *4:13 *37:13 0.108927
10 *4:13 *65:17 0.00604471
11 *3:9 *4:11 0.0108542
*RES
1 io_in[12] *4:5 262.132 
2 *4:5 *4:11 36.976 
3 *4:11 *4:13 272.168 
4 *4:13 *419:io_in[12] 4.5 
*END

*D_NET *5 0.133957
*CONN
*P io_in[13] I
*I *419:io_in[13] I *D wrapped_as2650
*CAP
1 io_in[13] 0.0603846
2 *419:io_in[13] 0.00659392
3 *5:7 0.00659392
4 *5:5 0.0603846
5 *5:5 *52:9 0
*RES
1 io_in[13] *5:5 524.212 
2 *5:5 *5:7 4.5 
3 *5:7 *419:io_in[13] 45.812 
*END

*D_NET *6 0.24283
*CONN
*P io_in[14] I
*I *419:io_in[14] I *D wrapped_as2650
*CAP
1 io_in[14] 0.00146141
2 *419:io_in[14] 0.00121429
3 *6:13 0.0260105
4 *6:11 0.0247962
5 *6:9 0.0134255
6 *6:7 0.0148869
7 *6:13 *19:13 0.0473751
8 *6:13 *24:13 0
9 *6:13 *49:9 0.0210788
10 *6:13 *50:9 0
11 *6:13 *61:9 0
12 *6:13 *63:15 0.00447437
13 *6:13 *78:9 0.0547693
14 *6:13 *86:9 0.00525729
15 *6:13 *104:9 0.0197844
16 *6:13 *114:9 0.0082959
*RES
1 io_in[14] *6:7 14.12 
2 *6:7 *6:9 112.632 
3 *6:9 *6:11 4.5 
4 *6:11 *6:13 504.712 
5 *6:13 *419:io_in[14] 11.416 
*END

*D_NET *7 0.156553
*CONN
*P io_in[15] I
*I *419:io_in[15] I *D wrapped_as2650
*CAP
1 io_in[15] 0.0148716
2 *419:io_in[15] 0.00793117
3 *7:11 0.00793117
4 *7:9 0.055474
5 *7:7 0.055474
6 *7:5 0.0148716
7 *419:io_in[15] *23:19 0
*RES
1 io_in[15] *7:5 125.06 
2 *7:5 *7:7 4.5 
3 *7:7 *7:9 483.912 
4 *7:9 *7:11 4.5 
5 *7:11 *419:io_in[15] 56.628 
*END

*D_NET *8 0.126517
*CONN
*P io_in[16] I
*I *419:io_in[16] I *D wrapped_as2650
*CAP
1 io_in[16] 0.0137904
2 *419:io_in[16] 0.00908557
3 *8:11 0.00908557
4 *8:9 0.0403824
5 *8:7 0.0403824
6 *8:5 0.0137904
*RES
1 io_in[16] *8:5 115.7 
2 *8:5 *8:7 4.5 
3 *8:7 *8:9 351 
4 *8:9 *8:11 4.5 
5 *8:11 *419:io_in[16] 65.988 
*END

*D_NET *9 0.0964398
*CONN
*P io_in[17] I
*I *419:io_in[17] I *D wrapped_as2650
*CAP
1 io_in[17] 0.0130631
2 *419:io_in[17] 0.00987401
3 *9:11 0.00987401
4 *9:9 0.0252828
5 *9:7 0.0252828
6 *9:5 0.0130631
7 *9:9 io_out[13] 0
*RES
1 io_in[17] *9:5 109.46 
2 *9:5 *9:7 4.5 
3 *9:7 *9:9 218.088 
4 *9:9 *9:11 4.5 
5 *9:11 *419:io_in[17] 72.228 
*END

*D_NET *10 0.0786005
*CONN
*P io_in[18] I
*I *419:io_in[18] I *D wrapped_as2650
*CAP
1 io_in[18] 0.0187434
2 *419:io_in[18] 0.00419371
3 *10:9 0.0120096
4 *10:7 0.00781586
5 *10:5 0.0187434
6 *10:9 *53:9 0.0170946
*RES
1 io_in[18] *10:5 156.052 
2 *10:5 *10:7 4.5 
3 *10:7 *10:9 85.176 
4 *10:9 *419:io_in[18] 30.136 
*END

*D_NET *11 0.0711297
*CONN
*P io_in[19] I
*I *419:io_in[19] I *D wrapped_as2650
*CAP
1 io_in[19] 0.00153713
2 *419:io_in[19] 0.0218075
3 *11:11 0.0218075
4 *11:9 0.00273418
5 *11:7 0.00427132
6 *11:9 *13:9 0.0189719
*RES
1 io_in[19] *11:7 17.032 
2 *11:7 *11:9 47.528 
3 *11:9 *11:11 4.5 
4 *11:11 *419:io_in[19] 169.156 
*END

*D_NET *12 0.512916
*CONN
*P io_in[1] I
*I *419:io_in[1] I *D wrapped_as2650
*CAP
1 io_in[1] 0.00142974
2 *419:io_in[1] 0.000814263
3 *12:21 0.0097958
4 *12:19 0.00898154
5 *12:17 0.0942613
6 *12:15 0.0942613
7 *12:13 0.0238417
8 *12:11 0.0252715
9 *12:21 *76:9 0.0122985
10 *12:21 *77:17 0
11 *12:21 *78:9 0.000923935
12 *12:21 *107:11 0.000596532
13 *12:21 *109:15 0.000947503
14 *12:21 *110:15 0.0512805
15 *12:21 *113:15 0.000774004
16 *1:13 *12:21 0.187438
*RES
1 io_in[1] *12:11 20.388 
2 *12:11 *12:13 209.144 
3 *12:13 *12:15 4.5 
4 *12:15 *12:17 841 
5 *12:17 *12:19 4.5 
6 *12:19 *12:21 182.261 
7 *12:21 *419:io_in[1] 18.9043 
*END

*D_NET *13 0.10556
*CONN
*P io_in[20] I
*I *419:io_in[20] I *D wrapped_as2650
*CAP
1 io_in[20] 0.00156138
2 *419:io_in[20] 0.0217221
3 *13:11 0.0217221
4 *13:9 0.0151592
5 *13:7 0.0167206
6 *13:9 io_oeb[14] 0.00970298
7 *11:9 *13:9 0.0189719
*RES
1 io_in[20] *13:7 17.24 
2 *13:7 *13:9 180.44 
3 *13:9 *13:11 4.5 
4 *13:11 *419:io_in[20] 168.948 
*END

*D_NET *14 0.118391
*CONN
*P io_in[21] I
*I *419:io_in[21] I *D wrapped_as2650
*CAP
1 io_in[21] 0.0123969
2 *419:io_in[21] 0.0106828
3 *14:11 0.0106828
4 *14:9 0.0361159
5 *14:7 0.0361159
6 *14:5 0.0123969
*RES
1 io_in[21] *14:5 103.22 
2 *14:5 *14:7 4.5 
3 *14:7 *14:9 313.768 
4 *14:9 *14:11 4.5 
5 *14:11 *419:io_in[21] 78.468 
*END

*D_NET *15 0.148452
*CONN
*P io_in[22] I
*I *419:io_in[22] I *D wrapped_as2650
*CAP
1 io_in[22] 0.0127402
2 *419:io_in[22] 0.0102784
3 *15:11 0.0102784
4 *15:9 0.0512073
5 *15:7 0.0512073
6 *15:5 0.0127402
7 *419:io_in[22] *20:19 0
*RES
1 io_in[22] *15:5 106.34 
2 *15:5 *15:7 4.5 
3 *15:7 *15:9 446.68 
4 *15:9 *15:11 4.5 
5 *15:11 *419:io_in[22] 75.348 
*END

*D_NET *16 0.178436
*CONN
*P io_in[23] I
*I *419:io_in[23] I *D wrapped_as2650
*CAP
1 io_in[23] 0.0119721
2 *419:io_in[23] 0.0109688
3 *16:11 0.0109688
4 *16:9 0.0662773
5 *16:7 0.0662773
6 *16:5 0.0119721
*RES
1 io_in[23] *16:5 100.1 
2 *16:5 *16:7 4.5 
3 *16:7 *16:9 579.592 
4 *16:9 *16:11 4.5 
5 *16:11 *419:io_in[23] 81.588 
*END

*D_NET *17 0.200098
*CONN
*P io_in[24] I
*I *419:io_in[24] I *D wrapped_as2650
*CAP
1 io_in[24] 0.0789109
2 *419:io_in[24] 0.0211382
3 *17:7 0.0211382
4 *17:5 0.0789109
*RES
1 io_in[24] *17:5 691.236 
2 *17:5 *17:7 4.5 
3 *17:7 *419:io_in[24] 165.828 
*END

*D_NET *18 0.188921
*CONN
*P io_in[25] I
*I *419:io_in[25] I *D wrapped_as2650
*CAP
1 io_in[25] 0.0803634
2 *419:io_in[25] 0.0140971
3 *18:7 0.0140971
4 *18:5 0.0803634
*RES
1 io_in[25] *18:5 701.22 
2 *18:5 *18:7 4.5 
3 *18:7 *419:io_in[25] 87.204 
*END

*D_NET *19 0.287677
*CONN
*P io_in[26] I
*I *419:io_in[26] I *D wrapped_as2650
*CAP
1 io_in[26] 0.00121818
2 *419:io_in[26] 0.000925652
3 *19:13 0.0567836
4 *19:11 0.0570762
5 *419:io_in[26] *419:io_in[28] 0.000721294
6 *19:11 *104:21 0
7 *19:13 *23:21 0.00699443
8 *19:13 *24:13 0
9 *19:13 *49:9 0.0059179
10 *19:13 *63:15 0.0113033
11 *19:13 *77:9 0.0388513
12 *19:13 *78:9 0.0605099
13 *6:13 *19:13 0.0473751
*RES
1 io_in[26] *19:11 19.556 
2 *19:11 *19:13 702.728 
3 *19:13 *419:io_in[26] 11.208 
*END

*D_NET *20 0.336288
*CONN
*P io_in[27] I
*I *419:io_in[27] I *D wrapped_as2650
*CAP
1 io_in[27] 0.0011705
2 *419:io_in[27] 0.00106655
3 *20:21 0.0013503
4 *20:19 0.000713459
5 *20:13 0.0573605
6 *20:11 0.0569308
7 *20:9 0.000326296
8 *20:7 0.0014968
9 *20:9 *21:9 0.0274489
10 *20:9 *58:21 0.0275259
11 *20:9 *65:21 0.00188566
12 *20:9 *104:21 0.000334127
13 *20:13 *76:9 0
14 *20:13 *79:9 0.0415928
15 *20:13 *95:9 0.0236658
16 *20:13 *96:9 0.00220453
17 *20:13 *98:9 0
18 *20:13 *109:15 0.00177421
19 *20:13 *111:13 0
20 *20:13 *111:17 0.00566702
21 *20:13 *113:15 0
22 *20:19 *53:7 4.34369e-05
23 *20:21 *58:9 0.0189148
24 *20:21 *63:15 0.00165581
25 *20:21 *78:9 0.0189148
26 *419:io_in[22] *20:19 0
27 *3:13 *20:13 0.044245
*RES
1 io_in[27] *20:7 12.248 
2 *20:7 *20:9 73.528 
3 *20:9 *20:11 4.5 
4 *20:11 *20:13 665.704 
5 *20:13 *20:19 11.808 
6 *20:19 *20:21 47.944 
7 *20:21 *419:io_in[27] 10.792 
*END

*D_NET *21 0.592562
*CONN
*P io_in[28] I
*I *419:io_in[28] I *D wrapped_as2650
*CAP
1 io_in[28] 0.00112375
2 *419:io_in[28] 0.00176863
3 *21:13 0.0319398
4 *21:11 0.0301712
5 *21:9 0.00223432
6 *21:7 0.00335807
7 *419:io_in[28] *58:9 0.00550137
8 *419:io_in[28] *63:15 0.000971213
9 *419:io_in[28] *78:9 0.000779948
10 *21:9 *58:21 0.00850064
11 *21:9 *59:16 0.0569929
12 *21:9 *65:21 0.0046703
13 *21:9 *104:21 0.000443133
14 *21:13 *23:13 0.0441627
15 *21:13 *33:13 0.000307255
16 *21:13 *34:13 0.000683316
17 *21:13 *35:13 0.000846798
18 *21:13 *36:13 0.00133647
19 *21:13 *37:13 0.070929
20 *21:13 *58:17 0.235466
21 *21:13 *65:17 0.0539883
22 *21:13 *113:17 5.469e-05
23 *419:io_in[26] *419:io_in[28] 0.000721294
24 *2:13 *419:io_in[28] 0.00816234
25 *20:9 *21:9 0.0274489
*RES
1 io_in[28] *21:7 12.04 
2 *21:7 *21:9 148.824 
3 *21:9 *21:11 4.5 
4 *21:11 *21:13 703.352 
5 *21:13 *419:io_in[28] 45.376 
*END

*D_NET *22 0.392527
*CONN
*P io_in[29] I
*I *419:io_in[29] I *D wrapped_as2650
*CAP
1 io_in[29] 0.0464682
2 *419:io_in[29] 0.000424405
3 *22:13 0.00299204
4 *22:11 0.00256764
5 *22:9 0.0273647
6 *22:7 0.0273647
7 *22:5 0.0464682
8 *22:13 *79:9 0.000261802
9 *22:13 *96:9 0.126995
10 *22:13 *97:9 0.00172657
11 *22:13 *98:9 0.0205219
12 *22:13 *111:17 0.00515798
13 *22:13 *112:9 0.0842136
*RES
1 io_in[29] *22:5 406.484 
2 *22:5 *22:7 4.5 
3 *22:7 *22:9 229.944 
4 *22:9 *22:11 4.5 
5 *22:11 *22:13 334.776 
6 *22:13 *419:io_in[29] 7.048 
*END

*D_NET *23 0.68736
*CONN
*P io_in[2] I
*I *419:io_in[2] I *D wrapped_as2650
*CAP
1 io_in[2] 0.00120019
2 *419:io_in[2] 0.000877006
3 *23:21 0.00677002
4 *23:19 0.00655425
5 *23:13 0.0160974
6 *23:11 0.0154361
7 *23:9 0.074058
8 *23:7 0.0752582
9 *23:9 *77:21 0.0652865
10 *23:9 *113:21 0.0120563
11 *23:9 *114:21 0.0875939
12 *23:13 *37:13 0.0267112
13 *23:13 *65:17 0.00634985
14 *23:13 *113:17 0.197001
15 *23:19 *58:15 0.00068996
16 *23:21 *58:9 0.00019118
17 *23:21 *63:15 0.00779432
18 *23:21 *76:9 0.000522326
19 *23:21 *78:9 0.00464275
20 *23:21 *111:13 0.0119153
21 *419:io_in[15] *23:19 0
22 *2:13 *23:21 0.0191973
23 *19:13 *23:21 0.00699443
24 *21:13 *23:13 0.0441627
*RES
1 io_in[2] *23:7 14.12 
2 *23:7 *23:9 764.504 
3 *23:9 *23:11 4.5 
4 *23:11 *23:13 496.184 
5 *23:13 *23:19 14.304 
6 *23:19 *23:21 128.44 
7 *23:21 *419:io_in[2] 10.376 
*END

*D_NET *24 0.474566
*CONN
*P io_in[30] I
*I *419:io_in[30] I *D wrapped_as2650
*CAP
1 io_in[30] 0.00163191
2 *419:io_in[30] 0.0014577
3 *24:13 0.0388779
4 *24:11 0.0374203
5 *24:9 0.0374035
6 *24:7 0.0390354
7 *24:13 *29:13 0.00412391
8 *24:13 *49:9 0.0010451
9 *24:13 *50:9 0.001135
10 *24:13 *60:9 0.288171
11 *24:13 *77:9 0
12 *24:13 *77:17 0.00815232
13 *24:13 *114:9 0.0161113
14 *6:13 *24:13 0
15 *19:13 *24:13 0
*RES
1 io_in[30] *24:7 17.864 
2 *24:7 *24:9 313.976 
3 *24:9 *24:11 4.5 
4 *24:11 *24:13 737.88 
5 *24:13 *419:io_in[30] 12.872 
*END

*D_NET *25 0.547938
*CONN
*P io_in[31] I
*I *419:io_in[31] I *D wrapped_as2650
*CAP
1 io_in[31] 0.0491875
2 *419:io_in[31] 0.00155929
3 *25:13 0.0100673
4 *25:11 0.00850803
5 *25:9 0.0224701
6 *25:7 0.0224701
7 *25:5 0.0491875
8 *25:9 *95:15 0.00806987
9 *25:9 *103:13 0.15387
10 *25:13 *26:13 0.131894
11 *25:13 *29:13 0.00893642
12 *25:13 *40:9 0.0817169
13 *25:13 *64:9 0
*RES
1 io_in[31] *25:5 428.532 
2 *25:5 *25:7 4.5 
3 *25:7 *25:9 394.472 
4 *25:9 *25:11 4.5 
5 *25:11 *25:13 332.696 
6 *25:13 *419:io_in[31] 14.328 
*END

*D_NET *26 0.497585
*CONN
*P io_in[32] I
*I *419:io_in[32] I *D wrapped_as2650
*CAP
1 io_in[32] 0.0487393
2 *419:io_in[32] 0.00151355
3 *26:13 0.00320365
4 *26:11 0.0016901
5 *26:9 0.056302
6 *26:7 0.056302
7 *26:5 0.0487393
8 *26:13 *28:13 0.137193
9 *26:13 *29:13 0.0102816
10 *26:13 *40:9 0.00172657
11 *26:13 *64:9 0
12 *25:13 *26:13 0.131894
*RES
1 io_in[32] *26:5 425.204 
2 *26:5 *26:7 4.5 
3 *26:7 *26:9 472.888 
4 *26:9 *26:11 4.5 
5 *26:11 *26:13 346.008 
6 *26:13 *419:io_in[32] 14.12 
*END

*D_NET *27 0.30201
*CONN
*P io_in[33] I
*I *419:io_in[33] I *D wrapped_as2650
*CAP
1 io_in[33] 0.0900863
2 *419:io_in[33] 0.000202674
3 *27:9 0.0606105
4 *27:7 0.0604078
5 *27:5 0.0900863
6 *419:io_in[33] *33:13 0.000616534
*RES
1 io_in[33] *27:5 779.428 
2 *27:5 *27:7 4.5 
3 *27:7 *27:9 541.079 
4 *27:9 *419:io_in[33] 11.1506 
*END

*D_NET *28 0.526267
*CONN
*P io_in[34] I
*I *419:io_in[34] I *D wrapped_as2650
*CAP
1 io_in[34] 0.0483227
2 *419:io_in[34] 0.00144852
3 *28:13 0.004799
4 *28:11 0.00335047
5 *28:9 0.0749255
6 *28:7 0.0749255
7 *28:5 0.0483227
8 *28:13 *29:13 0.0119863
9 *28:13 *40:9 0.00232781
10 *28:13 *50:9 0.00096081
11 *28:13 *60:9 0.00355801
12 *28:13 *61:9 0.00856075
13 *28:13 *64:9 0
14 *28:13 *74:9 0.105586
15 *26:13 *28:13 0.137193
*RES
1 io_in[34] *28:5 422.084 
2 *28:5 *28:7 4.5 
3 *28:7 *28:9 629.928 
4 *28:9 *28:11 4.5 
5 *28:11 *28:13 369.096 
6 *28:13 *419:io_in[34] 13.912 
*END

*D_NET *29 0.502813
*CONN
*P io_in[35] I
*I *419:io_in[35] I *D wrapped_as2650
*CAP
1 io_in[35] 0.0496573
2 *419:io_in[35] 0.00134681
3 *29:13 0.0266324
4 *29:11 0.0252856
5 *29:9 0.0793041
6 *29:7 0.0793041
7 *29:5 0.0496573
8 *29:13 *31:13 0
9 *29:13 *40:9 0.00614689
10 *29:13 *50:9 0.00398202
11 *29:13 *60:9 0.0043296
12 *29:13 *61:9 0.0125295
13 *29:13 *63:15 0
14 *29:13 *74:9 0.00992
15 *29:13 *77:17 0.119389
16 *24:13 *29:13 0.00412391
17 *25:13 *29:13 0.00893642
18 *26:13 *29:13 0.0102816
19 *28:13 *29:13 0.0119863
*RES
1 io_in[35] *29:5 434.564 
2 *29:5 *29:7 4.5 
3 *29:7 *29:9 708.021 
4 *29:9 *29:11 4.5 
5 *29:11 *29:13 157.048 
6 *29:13 *419:io_in[35] 22.4849 
*END

*D_NET *30 0.360612
*CONN
*P io_in[36] I
*I *419:io_in[36] I *D wrapped_as2650
*CAP
1 io_in[36] 0.0934857
2 *419:io_in[36] 0.000867247
3 *30:9 0.0868204
4 *30:7 0.0859531
5 *30:5 0.0934857
6 *30:5 *201:11 0
7 *30:5 *215:9 0
*RES
1 io_in[36] *30:5 810.628 
2 *30:5 *30:7 4.5 
3 *30:7 *30:9 770.432 
4 *30:9 *419:io_in[36] 15.968 
*END

*D_NET *31 0.452129
*CONN
*P io_in[37] I
*I *419:io_in[37] I *D wrapped_as2650
*CAP
1 io_in[37] 0.0458784
2 *419:io_in[37] 0.00169787
3 *31:13 0.044715
4 *31:11 0.0430171
5 *31:9 0.0973673
6 *31:7 0.0973673
7 *31:5 0.0458784
8 *31:13 *38:13 0.00924947
9 *31:13 *39:9 0.00956599
10 *31:13 *64:9 0.0174423
11 *31:13 *72:9 0.00778658
12 *31:13 *75:9 0.0070162
13 *31:13 *77:17 0
14 *31:13 *99:9 0.00993179
15 *31:13 *104:17 0.0152149
16 *29:13 *31:13 0
*RES
1 io_in[37] *31:5 403.364 
2 *31:5 *31:7 4.5 
3 *31:7 *31:9 867.943 
4 *31:9 *31:11 4.5 
5 *31:11 *31:13 178.965 
6 *31:13 *419:io_in[37] 25.1591 
*END

*D_NET *32 0.353244
*CONN
*P io_in[3] I
*I *419:io_in[3] I *D wrapped_as2650
*CAP
1 io_in[3] 0.0301989
2 *419:io_in[3] 2.47204e-05
3 *32:13 0.0275034
4 *32:11 0.0274787
5 *32:9 0.0771797
6 *32:7 0.0771797
7 *32:5 0.0301989
8 *32:13 *33:13 0.0159313
9 *32:13 *34:13 0.0123954
10 *32:13 *35:13 0.0115014
11 *32:13 *36:13 0.00331339
12 *32:13 *37:13 0.00269785
13 *32:13 *59:10 0.000538221
14 *32:13 *65:17 0.0247185
15 *3:9 *32:9 0.00850555
16 *4:11 *32:9 0.000872546
17 *4:13 *32:13 0.00300573
*RES
1 io_in[3] *32:5 262.34 
2 *32:5 *32:7 4.5 
3 *32:7 *32:9 689.799 
4 *32:9 *32:11 4.5 
5 *32:11 *32:13 154.999 
6 *32:13 *419:io_in[3] 13.6374 
*END

*D_NET *33 0.407508
*CONN
*P io_in[4] I
*I *419:io_in[4] I *D wrapped_as2650
*CAP
1 io_in[4] 0.0292036
2 *419:io_in[4] 0
3 *33:13 0.0214843
4 *33:11 0.0214843
5 *33:9 0.0730711
6 *33:7 0.0730711
7 *33:5 0.0292036
8 *33:13 *34:13 0.140582
9 *33:13 *59:10 0.0025522
10 *33:13 *59:12 0
11 *33:13 *80:12 0
12 *419:io_in[33] *33:13 0.000616534