*SPEF "ieee 1481-1999"
*DESIGN "user_project_wrapper"
*DATE "11:11:11 Fri 11 11, 1111"
*VENDOR "OpenRCX"
*PROGRAM "Parallel Extraction"
*VERSION "1.0"
*DESIGN_FLOW "NAME_SCOPE LOCAL" "PIN_CAP NONE"
*DIVIDER /
*DELIMITER :
*BUS_DELIMITER []
*T_UNIT 1 NS
*C_UNIT 1 PF
*R_UNIT 1 OHM
*L_UNIT 1 HENRY

*NAME_MAP
*1 io_in[0]
*2 io_in[10]
*3 io_in[11]
*4 io_in[12]
*5 io_in[13]
*6 io_in[14]
*7 io_in[15]
*8 io_in[16]
*9 io_in[17]
*10 io_in[18]
*11 io_in[19]
*12 io_in[1]
*13 io_in[20]
*14 io_in[21]
*15 io_in[22]
*16 io_in[23]
*17 io_in[24]
*18 io_in[25]
*19 io_in[26]
*20 io_in[27]
*21 io_in[28]
*22 io_in[29]
*23 io_in[2]
*24 io_in[30]
*25 io_in[31]
*26 io_in[32]
*27 io_in[33]
*28 io_in[34]
*29 io_in[35]
*30 io_in[36]
*31 io_in[37]
*32 io_in[3]
*33 io_in[4]
*34 io_in[5]
*35 io_in[6]
*36 io_in[7]
*37 io_in[8]
*38 io_in[9]
*39 io_oeb[0]
*40 io_oeb[10]
*41 io_oeb[11]
*42 io_oeb[12]
*43 io_oeb[13]
*44 io_oeb[14]
*45 io_oeb[15]
*46 io_oeb[16]
*47 io_oeb[17]
*48 io_oeb[18]
*49 io_oeb[19]
*50 io_oeb[1]
*51 io_oeb[20]
*52 io_oeb[21]
*53 io_oeb[22]
*54 io_oeb[23]
*55 io_oeb[24]
*56 io_oeb[25]
*57 io_oeb[26]
*58 io_oeb[27]
*59 io_oeb[28]
*60 io_oeb[29]
*61 io_oeb[2]
*62 io_oeb[30]
*63 io_oeb[31]
*64 io_oeb[32]
*65 io_oeb[33]
*66 io_oeb[34]
*67 io_oeb[35]
*68 io_oeb[36]
*69 io_oeb[37]
*70 io_oeb[3]
*71 io_oeb[4]
*72 io_oeb[5]
*73 io_oeb[6]
*74 io_oeb[7]
*75 io_oeb[8]
*76 io_oeb[9]
*77 io_out[0]
*78 io_out[10]
*79 io_out[11]
*80 io_out[12]
*81 io_out[13]
*82 io_out[14]
*83 io_out[15]
*84 io_out[16]
*85 io_out[17]
*86 io_out[18]
*87 io_out[19]
*88 io_out[1]
*89 io_out[20]
*90 io_out[21]
*91 io_out[22]
*92 io_out[23]
*93 io_out[24]
*94 io_out[25]
*95 io_out[26]
*96 io_out[27]
*97 io_out[28]
*98 io_out[29]
*99 io_out[2]
*100 io_out[30]
*101 io_out[31]
*102 io_out[32]
*103 io_out[33]
*104 io_out[34]
*105 io_out[35]
*106 io_out[36]
*107 io_out[37]
*108 io_out[3]
*109 io_out[4]
*110 io_out[5]
*111 io_out[6]
*112 io_out[7]
*113 io_out[8]
*114 io_out[9]
*115 la_data_in[0]
*116 la_data_in[10]
*117 la_data_in[11]
*118 la_data_in[12]
*119 la_data_in[13]
*120 la_data_in[14]
*121 la_data_in[15]
*122 la_data_in[16]
*123 la_data_in[17]
*124 la_data_in[18]
*125 la_data_in[19]
*126 la_data_in[1]
*127 la_data_in[20]
*128 la_data_in[21]
*129 la_data_in[22]
*130 la_data_in[23]
*131 la_data_in[24]
*132 la_data_in[25]
*133 la_data_in[26]
*134 la_data_in[27]
*135 la_data_in[28]
*136 la_data_in[29]
*137 la_data_in[2]
*138 la_data_in[30]
*139 la_data_in[31]
*140 la_data_in[32]
*141 la_data_in[33]
*142 la_data_in[34]
*143 la_data_in[35]
*144 la_data_in[36]
*145 la_data_in[37]
*146 la_data_in[38]
*147 la_data_in[39]
*148 la_data_in[3]
*149 la_data_in[40]
*150 la_data_in[41]
*151 la_data_in[42]
*152 la_data_in[43]
*153 la_data_in[44]
*154 la_data_in[45]
*155 la_data_in[46]
*156 la_data_in[47]
*157 la_data_in[48]
*158 la_data_in[49]
*159 la_data_in[4]
*160 la_data_in[50]
*161 la_data_in[51]
*162 la_data_in[52]
*163 la_data_in[53]
*164 la_data_in[54]
*165 la_data_in[55]
*166 la_data_in[56]
*167 la_data_in[57]
*168 la_data_in[58]
*169 la_data_in[59]
*170 la_data_in[5]
*171 la_data_in[60]
*172 la_data_in[61]
*173 la_data_in[62]
*174 la_data_in[63]
*175 la_data_in[6]
*176 la_data_in[7]
*177 la_data_in[8]
*178 la_data_in[9]
*179 la_data_out[0]
*180 la_data_out[10]
*181 la_data_out[11]
*182 la_data_out[12]
*183 la_data_out[13]
*184 la_data_out[14]
*185 la_data_out[15]
*186 la_data_out[16]
*187 la_data_out[17]
*188 la_data_out[18]
*189 la_data_out[19]
*190 la_data_out[1]
*191 la_data_out[20]
*192 la_data_out[21]
*193 la_data_out[22]
*194 la_data_out[23]
*195 la_data_out[24]
*196 la_data_out[25]
*197 la_data_out[26]
*198 la_data_out[27]
*199 la_data_out[28]
*200 la_data_out[29]
*201 la_data_out[2]
*202 la_data_out[30]
*203 la_data_out[31]
*204 la_data_out[32]
*205 la_data_out[33]
*206 la_data_out[34]
*207 la_data_out[35]
*208 la_data_out[36]
*209 la_data_out[37]
*210 la_data_out[38]
*211 la_data_out[39]
*212 la_data_out[3]
*213 la_data_out[40]
*214 la_data_out[41]
*215 la_data_out[42]
*216 la_data_out[43]
*217 la_data_out[44]
*218 la_data_out[45]
*219 la_data_out[46]
*220 la_data_out[47]
*221 la_data_out[48]
*222 la_data_out[49]
*223 la_data_out[4]
*224 la_data_out[50]
*225 la_data_out[51]
*226 la_data_out[52]
*227 la_data_out[53]
*228 la_data_out[54]
*229 la_data_out[55]
*230 la_data_out[56]
*231 la_data_out[57]
*232 la_data_out[58]
*233 la_data_out[59]
*234 la_data_out[5]
*235 la_data_out[60]
*236 la_data_out[61]
*237 la_data_out[62]
*238 la_data_out[63]
*239 la_data_out[6]
*240 la_data_out[7]
*241 la_data_out[8]
*242 la_data_out[9]
*243 la_oenb[0]
*244 la_oenb[10]
*245 la_oenb[11]
*246 la_oenb[12]
*247 la_oenb[13]
*248 la_oenb[14]
*249 la_oenb[15]
*250 la_oenb[16]
*251 la_oenb[17]
*252 la_oenb[18]
*253 la_oenb[19]
*254 la_oenb[1]
*255 la_oenb[20]
*256 la_oenb[21]
*257 la_oenb[22]
*258 la_oenb[23]
*259 la_oenb[24]
*260 la_oenb[25]
*261 la_oenb[26]
*262 la_oenb[27]
*263 la_oenb[28]
*264 la_oenb[29]
*265 la_oenb[2]
*266 la_oenb[30]
*267 la_oenb[31]
*268 la_oenb[32]
*269 la_oenb[33]
*270 la_oenb[34]
*271 la_oenb[35]
*272 la_oenb[36]
*273 la_oenb[37]
*274 la_oenb[38]
*275 la_oenb[39]
*276 la_oenb[3]
*277 la_oenb[40]
*278 la_oenb[41]
*279 la_oenb[42]
*280 la_oenb[43]
*281 la_oenb[44]
*282 la_oenb[45]
*283 la_oenb[46]
*284 la_oenb[47]
*285 la_oenb[48]
*286 la_oenb[49]
*287 la_oenb[4]
*288 la_oenb[50]
*289 la_oenb[51]
*290 la_oenb[52]
*291 la_oenb[53]
*292 la_oenb[54]
*293 la_oenb[55]
*294 la_oenb[56]
*295 la_oenb[57]
*296 la_oenb[58]
*297 la_oenb[59]
*298 la_oenb[5]
*299 la_oenb[60]
*300 la_oenb[61]
*301 la_oenb[62]
*302 la_oenb[63]
*303 la_oenb[6]
*304 la_oenb[7]
*305 la_oenb[8]
*306 la_oenb[9]
*307 user_clock2
*308 user_irq[0]
*309 user_irq[1]
*310 user_irq[2]
*313 wb_clk_i
*314 wb_rst_i
*315 wbs_ack_o
*316 wbs_adr_i[0]
*317 wbs_adr_i[10]
*318 wbs_adr_i[11]
*319 wbs_adr_i[12]
*320 wbs_adr_i[13]
*321 wbs_adr_i[14]
*322 wbs_adr_i[15]
*323 wbs_adr_i[16]
*324 wbs_adr_i[17]
*325 wbs_adr_i[18]
*326 wbs_adr_i[19]
*327 wbs_adr_i[1]
*328 wbs_adr_i[20]
*329 wbs_adr_i[21]
*330 wbs_adr_i[22]
*331 wbs_adr_i[23]
*332 wbs_adr_i[24]
*333 wbs_adr_i[25]
*334 wbs_adr_i[26]
*335 wbs_adr_i[27]
*336 wbs_adr_i[28]
*337 wbs_adr_i[29]
*338 wbs_adr_i[2]
*339 wbs_adr_i[30]
*340 wbs_adr_i[31]
*341 wbs_adr_i[3]
*342 wbs_adr_i[4]
*343 wbs_adr_i[5]
*344 wbs_adr_i[6]
*345 wbs_adr_i[7]
*346 wbs_adr_i[8]
*347 wbs_adr_i[9]
*348 wbs_cyc_i
*349 wbs_dat_i[0]
*350 wbs_dat_i[10]
*351 wbs_dat_i[11]
*352 wbs_dat_i[12]
*353 wbs_dat_i[13]
*354 wbs_dat_i[14]
*355 wbs_dat_i[15]
*356 wbs_dat_i[16]
*357 wbs_dat_i[17]
*358 wbs_dat_i[18]
*359 wbs_dat_i[19]
*360 wbs_dat_i[1]
*361 wbs_dat_i[20]
*362 wbs_dat_i[21]
*363 wbs_dat_i[22]
*364 wbs_dat_i[23]
*365 wbs_dat_i[24]
*366 wbs_dat_i[25]
*367 wbs_dat_i[26]
*368 wbs_dat_i[27]
*369 wbs_dat_i[28]
*370 wbs_dat_i[29]
*371 wbs_dat_i[2]
*372 wbs_dat_i[30]
*373 wbs_dat_i[31]
*374 wbs_dat_i[3]
*375 wbs_dat_i[4]
*376 wbs_dat_i[5]
*377 wbs_dat_i[6]
*378 wbs_dat_i[7]
*379 wbs_dat_i[8]
*380 wbs_dat_i[9]
*381 wbs_dat_o[0]
*382 wbs_dat_o[10]
*383 wbs_dat_o[11]
*384 wbs_dat_o[12]
*385 wbs_dat_o[13]
*386 wbs_dat_o[14]
*387 wbs_dat_o[15]
*388 wbs_dat_o[16]
*389 wbs_dat_o[17]
*390 wbs_dat_o[18]
*391 wbs_dat_o[19]
*392 wbs_dat_o[1]
*393 wbs_dat_o[20]
*394 wbs_dat_o[21]
*395 wbs_dat_o[22]
*396 wbs_dat_o[23]
*397 wbs_dat_o[24]
*398 wbs_dat_o[25]
*399 wbs_dat_o[26]
*400 wbs_dat_o[27]
*401 wbs_dat_o[28]
*402 wbs_dat_o[29]
*403 wbs_dat_o[2]
*404 wbs_dat_o[30]
*405 wbs_dat_o[31]
*406 wbs_dat_o[3]
*407 wbs_dat_o[4]
*408 wbs_dat_o[5]
*409 wbs_dat_o[6]
*410 wbs_dat_o[7]
*411 wbs_dat_o[8]
*412 wbs_dat_o[9]
*413 wbs_sel_i[0]
*414 wbs_sel_i[1]
*415 wbs_sel_i[2]
*416 wbs_sel_i[3]
*417 wbs_stb_i
*418 wbs_we_i
*419 wrapped_as2650

*PORTS
io_in[0] I
io_in[10] I
io_in[11] I
io_in[12] I
io_in[13] I
io_in[14] I
io_in[15] I
io_in[16] I
io_in[17] I
io_in[18] I
io_in[19] I
io_in[1] I
io_in[20] I
io_in[21] I
io_in[22] I
io_in[23] I
io_in[24] I
io_in[25] I
io_in[26] I
io_in[27] I
io_in[28] I
io_in[29] I
io_in[2] I
io_in[30] I
io_in[31] I
io_in[32] I
io_in[33] I
io_in[34] I
io_in[35] I
io_in[36] I
io_in[37] I
io_in[3] I
io_in[4] I
io_in[5] I
io_in[6] I
io_in[7] I
io_in[8] I
io_in[9] I
io_oeb[0] O
io_oeb[10] O
io_oeb[11] O
io_oeb[12] O
io_oeb[13] O
io_oeb[14] O
io_oeb[15] O
io_oeb[16] O
io_oeb[17] O
io_oeb[18] O
io_oeb[19] O
io_oeb[1] O
io_oeb[20] O
io_oeb[21] O
io_oeb[22] O
io_oeb[23] O
io_oeb[24] O
io_oeb[25] O
io_oeb[26] O
io_oeb[27] O
io_oeb[28] O
io_oeb[29] O
io_oeb[2] O
io_oeb[30] O
io_oeb[31] O
io_oeb[32] O
io_oeb[33] O
io_oeb[34] O
io_oeb[35] O
io_oeb[36] O
io_oeb[37] O
io_oeb[3] O
io_oeb[4] O
io_oeb[5] O
io_oeb[6] O
io_oeb[7] O
io_oeb[8] O
io_oeb[9] O
io_out[0] O
io_out[10] O
io_out[11] O
io_out[12] O
io_out[13] O
io_out[14] O
io_out[15] O
io_out[16] O
io_out[17] O
io_out[18] O
io_out[19] O
io_out[1] O
io_out[20] O
io_out[21] O
io_out[22] O
io_out[23] O
io_out[24] O
io_out[25] O
io_out[26] O
io_out[27] O
io_out[28] O
io_out[29] O
io_out[2] O
io_out[30] O
io_out[31] O
io_out[32] O
io_out[33] O
io_out[34] O
io_out[35] O
io_out[36] O
io_out[37] O
io_out[3] O
io_out[4] O
io_out[5] O
io_out[6] O
io_out[7] O
io_out[8] O
io_out[9] O
la_data_in[0] I
la_data_in[10] I
la_data_in[11] I
la_data_in[12] I
la_data_in[13] I
la_data_in[14] I
la_data_in[15] I
la_data_in[16] I
la_data_in[17] I
la_data_in[18] I
la_data_in[19] I
la_data_in[1] I
la_data_in[20] I
la_data_in[21] I
la_data_in[22] I
la_data_in[23] I
la_data_in[24] I
la_data_in[25] I
la_data_in[26] I
la_data_in[27] I
la_data_in[28] I
la_data_in[29] I
la_data_in[2] I
la_data_in[30] I
la_data_in[31] I
la_data_in[32] I
la_data_in[33] I
la_data_in[34] I
la_data_in[35] I
la_data_in[36] I
la_data_in[37] I
la_data_in[38] I
la_data_in[39] I
la_data_in[3] I
la_data_in[40] I
la_data_in[41] I
la_data_in[42] I
la_data_in[43] I
la_data_in[44] I
la_data_in[45] I
la_data_in[46] I
la_data_in[47] I
la_data_in[48] I
la_data_in[49] I
la_data_in[4] I
la_data_in[50] I
la_data_in[51] I
la_data_in[52] I
la_data_in[53] I
la_data_in[54] I
la_data_in[55] I
la_data_in[56] I
la_data_in[57] I
la_data_in[58] I
la_data_in[59] I
la_data_in[5] I
la_data_in[60] I
la_data_in[61] I
la_data_in[62] I
la_data_in[63] I
la_data_in[6] I
la_data_in[7] I
la_data_in[8] I
la_data_in[9] I
la_data_out[0] O
la_data_out[10] O
la_data_out[11] O
la_data_out[12] O
la_data_out[13] O
la_data_out[14] O
la_data_out[15] O
la_data_out[16] O
la_data_out[17] O
la_data_out[18] O
la_data_out[19] O
la_data_out[1] O
la_data_out[20] O
la_data_out[21] O
la_data_out[22] O
la_data_out[23] O
la_data_out[24] O
la_data_out[25] O
la_data_out[26] O
la_data_out[27] O
la_data_out[28] O
la_data_out[29] O
la_data_out[2] O
la_data_out[30] O
la_data_out[31] O
la_data_out[32] O
la_data_out[33] O
la_data_out[34] O
la_data_out[35] O
la_data_out[36] O
la_data_out[37] O
la_data_out[38] O
la_data_out[39] O
la_data_out[3] O
la_data_out[40] O
la_data_out[41] O
la_data_out[42] O
la_data_out[43] O
la_data_out[44] O
la_data_out[45] O
la_data_out[46] O
la_data_out[47] O
la_data_out[48] O
la_data_out[49] O
la_data_out[4] O
la_data_out[50] O
la_data_out[51] O
la_data_out[52] O
la_data_out[53] O
la_data_out[54] O
la_data_out[55] O
la_data_out[56] O
la_data_out[57] O
la_data_out[58] O
la_data_out[59] O
la_data_out[5] O
la_data_out[60] O
la_data_out[61] O
la_data_out[62] O
la_data_out[63] O
la_data_out[6] O
la_data_out[7] O
la_data_out[8] O
la_data_out[9] O
la_oenb[0] I
la_oenb[10] I
la_oenb[11] I
la_oenb[12] I
la_oenb[13] I
la_oenb[14] I
la_oenb[15] I
la_oenb[16] I
la_oenb[17] I
la_oenb[18] I
la_oenb[19] I
la_oenb[1] I
la_oenb[20] I
la_oenb[21] I
la_oenb[22] I
la_oenb[23] I
la_oenb[24] I
la_oenb[25] I
la_oenb[26] I
la_oenb[27] I
la_oenb[28] I
la_oenb[29] I
la_oenb[2] I
la_oenb[30] I
la_oenb[31] I
la_oenb[32] I
la_oenb[33] I
la_oenb[34] I
la_oenb[35] I
la_oenb[36] I
la_oenb[37] I
la_oenb[38] I
la_oenb[39] I
la_oenb[3] I
la_oenb[40] I
la_oenb[41] I
la_oenb[42] I
la_oenb[43] I
la_oenb[44] I
la_oenb[45] I
la_oenb[46] I
la_oenb[47] I
la_oenb[48] I
la_oenb[49] I
la_oenb[4] I
la_oenb[50] I
la_oenb[51] I
la_oenb[52] I
la_oenb[53] I
la_oenb[54] I
la_oenb[55] I
la_oenb[56] I
la_oenb[57] I
la_oenb[58] I
la_oenb[59] I
la_oenb[5] I
la_oenb[60] I
la_oenb[61] I
la_oenb[62] I
la_oenb[63] I
la_oenb[6] I
la_oenb[7] I
la_oenb[8] I
la_oenb[9] I
user_clock2 I
user_irq[0] O
user_irq[1] O
user_irq[2] O
wb_clk_i I
wb_rst_i I
wbs_ack_o O
wbs_adr_i[0] I
wbs_adr_i[10] I
wbs_adr_i[11] I
wbs_adr_i[12] I
wbs_adr_i[13] I
wbs_adr_i[14] I
wbs_adr_i[15] I
wbs_adr_i[16] I
wbs_adr_i[17] I
wbs_adr_i[18] I
wbs_adr_i[19] I
wbs_adr_i[1] I
wbs_adr_i[20] I
wbs_adr_i[21] I
wbs_adr_i[22] I
wbs_adr_i[23] I
wbs_adr_i[24] I
wbs_adr_i[25] I
wbs_adr_i[26] I
wbs_adr_i[27] I
wbs_adr_i[28] I
wbs_adr_i[29] I
wbs_adr_i[2] I
wbs_adr_i[30] I
wbs_adr_i[31] I
wbs_adr_i[3] I
wbs_adr_i[4] I
wbs_adr_i[5] I
wbs_adr_i[6] I
wbs_adr_i[7] I
wbs_adr_i[8] I
wbs_adr_i[9] I
wbs_cyc_i I
wbs_dat_i[0] I
wbs_dat_i[10] I
wbs_dat_i[11] I
wbs_dat_i[12] I
wbs_dat_i[13] I
wbs_dat_i[14] I
wbs_dat_i[15] I
wbs_dat_i[16] I
wbs_dat_i[17] I
wbs_dat_i[18] I
wbs_dat_i[19] I
wbs_dat_i[1] I
wbs_dat_i[20] I
wbs_dat_i[21] I
wbs_dat_i[22] I
wbs_dat_i[23] I
wbs_dat_i[24] I
wbs_dat_i[25] I
wbs_dat_i[26] I
wbs_dat_i[27] I
wbs_dat_i[28] I
wbs_dat_i[29] I
wbs_dat_i[2] I
wbs_dat_i[30] I
wbs_dat_i[31] I
wbs_dat_i[3] I
wbs_dat_i[4] I
wbs_dat_i[5] I
wbs_dat_i[6] I
wbs_dat_i[7] I
wbs_dat_i[8] I
wbs_dat_i[9] I
wbs_dat_o[0] O
wbs_dat_o[10] O
wbs_dat_o[11] O
wbs_dat_o[12] O
wbs_dat_o[13] O
wbs_dat_o[14] O
wbs_dat_o[15] O
wbs_dat_o[16] O
wbs_dat_o[17] O
wbs_dat_o[18] O
wbs_dat_o[19] O
wbs_dat_o[1] O
wbs_dat_o[20] O
wbs_dat_o[21] O
wbs_dat_o[22] O
wbs_dat_o[23] O
wbs_dat_o[24] O
wbs_dat_o[25] O
wbs_dat_o[26] O
wbs_dat_o[27] O
wbs_dat_o[28] O
wbs_dat_o[29] O
wbs_dat_o[2] O
wbs_dat_o[30] O
wbs_dat_o[31] O
wbs_dat_o[3] O
wbs_dat_o[4] O
wbs_dat_o[5] O
wbs_dat_o[6] O
wbs_dat_o[7] O
wbs_dat_o[8] O
wbs_dat_o[9] O
wbs_sel_i[0] I
wbs_sel_i[1] I
wbs_sel_i[2] I
wbs_sel_i[3] I
wbs_stb_i I
wbs_we_i I

*D_NET *1 0.786848
*CONN
*P io_in[0] I
*I *419:io_in[0] I *D wrapped_as2650
*CAP
1 io_in[0] 0.00051408
2 *419:io_in[0] 0
3 *1:11 0.0202766
4 *1:10 0.0202766
5 *1:8 0.0527935
6 *1:7 0.0533076
7 *1:8 *77:11 0.301365
8 *1:11 *21:11 0.104011
9 *1:11 *28:19 0.000536557
10 *1:11 *39:5 0.228288
11 *1:11 *106:7 0.00547899
*RES
1 io_in[0] *1:7 8.685 
2 *1:7 *1:8 787.95 
3 *1:8 *1:10 4.5 
4 *1:10 *1:11 571.77 
5 *1:11 *419:io_in[0] 4.5 
*END

*D_NET *2 0.404875
*CONN
*P io_in[10] I
*I *419:io_in[10] I *D wrapped_as2650
*CAP
1 io_in[10] 0.000276945
2 *419:io_in[10] 0.00119858
3 *2:11 0.0191763
4 *2:10 0.0179777
5 *2:8 0.0104512
6 *2:7 0.0107281
7 *2:8 *35:8 0.000955931
8 *2:8 *36:8 0.0602879
9 *2:11 *33:11 0.191499
10 *2:11 *67:8 0.0923236
*RES
1 io_in[10] *2:7 6.705 
2 *2:7 *2:8 158.85 
3 *2:8 *2:10 4.5 
4 *2:10 *2:11 481.95 
5 *2:11 *419:io_in[10] 12.105 
*END

*D_NET *3 0.23034
*CONN
*P io_in[11] I
*I *419:io_in[11] I *D wrapped_as2650
*CAP
1 io_in[11] 0.000363112
2 *419:io_in[11] 0.000473276
3 *3:19 0.017534
4 *3:18 0.0170607
5 *3:16 0.0122212
6 *3:15 0.0122212
7 *3:13 0.0361668
8 *3:11 0.0365299
9 *3:16 *106:8 0
10 *3:19 *419:io_in[22] 0
11 *3:19 *419:io_in[26] 0
12 *3:19 *41:8 0.0971973
13 *3:19 *50:8 0
14 *3:19 *56:11 0
15 *3:19 *76:8 0.000572023
16 *3:19 *80:13 0
17 *3:19 *84:13 0
18 *3:19 *91:11 0
*RES
1 io_in[11] *3:11 3.195 
2 *3:11 *3:13 227.07 
3 *3:13 *3:15 4.5 
4 *3:15 *3:16 92.97 
5 *3:16 *3:18 4.5 
6 *3:18 *3:19 247.95 
7 *3:19 *419:io_in[11] 7.425 
*END

*D_NET *4 0.254686
*CONN
*P io_in[12] I
*I *419:io_in[12] I *D wrapped_as2650
*CAP
1 io_in[12] 0.000167227
2 *419:io_in[12] 0.000202072
3 *4:19 0.00279976
4 *4:18 0.00597056
5 *4:13 0.0317383
6 *4:11 0.0285327
7 *4:19 *20:11 0
8 *4:19 *37:11 0.0984771
9 *4:19 *80:14 0.0867978
*RES
1 io_in[12] *4:11 2.115 
2 *4:11 *4:13 218.97 
3 *4:13 *4:18 34.47 
4 *4:18 *4:19 245.79 
5 *4:19 *419:io_in[12] 5.895 
*END

*D_NET *5 0.13184
*CONN
*P io_in[13] I
*I *419:io_in[13] I *D wrapped_as2650
*CAP
1 io_in[13] 0.0528791
2 *419:io_in[13] 0.00623965
3 *5:11 0.0120382
4 *5:10 0.00590346
5 *5:5 0.052984
6 *419:io_in[13] *37:11 0.000229357
7 *419:io_in[13] *80:13 0
8 *5:5 *85:10 0
9 *5:5 *87:10 0
10 *5:10 *10:17 0.000516648
11 *5:11 *85:10 0.00104933
*RES
1 io_in[13] *5:5 412.065 
2 *5:5 *5:10 10.35 
3 *5:10 *5:11 45.81 
4 *5:11 *419:io_in[13] 44.235 
*END

*D_NET *6 0.145556
*CONN
*P io_in[14] I
*I *419:io_in[14] I *D wrapped_as2650
*CAP
1 io_in[14] 0.000264341
2 *419:io_in[14] 0.00460158
3 *6:16 0.0148078
4 *6:15 0.0102062
5 *6:13 0.0574882
6 *6:11 0.0577525
7 *419:io_in[14] *37:11 0.000229357
8 *419:io_in[14] *105:14 0.00020563
*RES
1 io_in[14] *6:11 2.655 
2 *6:11 *6:13 449.73 
3 *6:13 *6:15 4.5 
4 *6:15 *6:16 75.78 
5 *6:16 *419:io_in[14] 28.575 
*END

*D_NET *7 0.151837
*CONN
*P io_in[15] I
*I *419:io_in[15] I *D wrapped_as2650
*CAP
1 io_in[15] 0.0133769
2 *419:io_in[15] 9.76714e-05
3 *7:11 0.00833438
4 *7:10 0.00823671
5 *7:8 0.0542071
6 *7:7 0.0542071
7 *7:5 0.0133769
*RES
1 io_in[15] *7:5 102.825 
2 *7:5 *7:7 4.5 
3 *7:7 *7:8 421.29 
4 *7:8 *7:10 4.5 
5 *7:10 *7:11 54.45 
6 *7:11 *419:io_in[15] 0.765 
*END

*D_NET *8 0.125058
*CONN
*P io_in[16] I
*I *419:io_in[16] I *D wrapped_as2650
*CAP
1 io_in[16] 0.000247817
2 *419:io_in[16] 0.00446125
3 *8:21 0.00982111
4 *8:16 0.0446767
5 *8:15 0.0393169
6 *8:13 0.0130283
7 *8:11 0.0132762
8 *419:io_in[16] *37:11 0.000229357
9 *8:16 *81:20 0
*RES
1 io_in[16] *8:11 2.655 
2 *8:11 *8:13 100.17 
3 *8:13 *8:15 4.5 
4 *8:15 *8:16 305.19 
5 *8:16 *8:21 36.27 
6 *8:21 *419:io_in[16] 27.405 
*END

*D_NET *9 0.0924518
*CONN
*P io_in[17] I
*I *419:io_in[17] I *D wrapped_as2650
*CAP
1 io_in[17] 0.00133604
2 *419:io_in[17] 0.00427258
3 *9:19 0.00973409
4 *9:14 0.0296258
5 *9:13 0.0241643
6 *9:11 0.0108641
7 *9:10 0.0122001
8 *419:io_in[17] *84:13 0
9 *9:10 *83:16 0.000254726
10 *9:19 *83:13 0
11 *9:19 *84:13 0
*RES
1 io_in[17] *9:10 19.935 
2 *9:10 *9:11 83.25 
3 *9:11 *9:13 4.5 
4 *9:13 *9:14 187.65 
5 *9:14 *9:19 44.01 
6 *9:19 *419:io_in[17] 26.055 
*END

*D_NET *10 0.0644428
*CONN
*P io_in[18] I
*I *419:io_in[18] I *D wrapped_as2650
*CAP
1 io_in[18] 0.0014769
2 *419:io_in[18] 0.000166616
3 *10:17 0.00948946
4 *10:16 0.00932284
5 *10:14 0.00941148
6 *10:13 0.00941148
7 *10:11 0.0114706
8 *10:10 0.0129475
9 *419:io_in[18] *37:11 0.000229357
10 *10:10 *83:16 0
11 *5:10 *10:17 0.000516648
*RES
1 io_in[18] *10:10 19.755 
2 *10:10 *10:11 87.75 
3 *10:11 *10:13 4.5 
4 *10:13 *10:14 71.55 
5 *10:14 *10:16 4.5 
6 *10:16 *10:17 62.55 
7 *10:17 *419:io_in[18] 1.305 
*END

*D_NET *11 0.0571763
*CONN
*P io_in[19] I
*I *419:io_in[19] I *D wrapped_as2650
*CAP
1 io_in[19] 0.00417408
2 *419:io_in[19] 0.00259014
3 *11:11 0.0219816
4 *11:10 0.0235655
5 *419:io_in[19] *19:11 0
6 *419:io_in[19] *24:19 0.00265691
7 *11:10 *83:16 0.002208
8 *11:11 *85:9 0
*RES
1 io_in[19] *11:10 44.055 
2 *11:10 *11:11 140.67 
3 *11:11 *419:io_in[19] 32.175 
*END

*D_NET *12 0.860824
*CONN
*P io_in[1] I
*I *419:io_in[1] I *D wrapped_as2650
*CAP
1 io_in[1] 0.000449407
2 *419:io_in[1] 0.00100085
3 *12:11 0.0345379
4 *12:10 0.033537
5 *12:8 0.00331686
6 *12:7 0.00376626
7 *12:8 *23:8 0.000440019
8 *12:8 *39:8 0.284741
9 *12:8 *50:11 0.269989
10 *12:8 *77:11 0.00130864
11 *12:11 *33:11 0.21316
12 *12:11 *44:8 0
13 *12:11 *45:8 0
14 *12:11 *47:8 0.00810274
15 *12:11 *49:8 0.00308893
16 *12:11 *67:8 0.00338577
*RES
1 io_in[1] *12:7 8.145 
2 *12:7 *12:8 731.97 
3 *12:8 *12:10 4.5 
4 *12:10 *12:11 563.13 
5 *12:11 *419:io_in[1] 11.745 
*END

*D_NET *13 0.0843531
*CONN
*P io_in[20] I
*I *419:io_in[20] I *D wrapped_as2650
*CAP
1 io_in[20] 0.0117293
2 *419:io_in[20] 9.76714e-05
3 *13:11 0.0101794
4 *13:10 0.0100817
5 *13:8 0.0202679
6 *13:7 0.0202679
7 *13:5 0.0117293
*RES
1 io_in[20] *13:5 89.325 
2 *13:5 *13:7 4.5 
3 *13:7 *13:8 156.69 
4 *13:8 *13:10 4.5 
5 *13:10 *13:11 67.95 
6 *13:11 *419:io_in[20] 0.765 
*END

*D_NET *14 0.113723
*CONN
*P io_in[21] I
*I *419:io_in[21] I *D wrapped_as2650
*CAP
1 io_in[21] 0.00141746
2 *419:io_in[21] 0.00444495
3 *14:19 0.0106906
4 *14:14 0.0406563
5 *14:13 0.0344107
6 *14:11 0.0102283
7 *14:10 0.0116458
8 *419:io_in[21] *37:11 0.000229357
*RES
1 io_in[21] *14:10 19.935 
2 *14:10 *14:11 77.85 
3 *14:11 *14:13 4.5 
4 *14:13 *14:14 268.83 
5 *14:14 *14:19 49.77 
6 *14:19 *419:io_in[21] 27.405 
*END

*D_NET *15 0.158542
*CONN
*P io_in[22] I
*I *419:io_in[22] I *D wrapped_as2650
*CAP
1 io_in[22] 0.00485065
2 *419:io_in[22] 0.00545944
3 *15:12 0.0486751
4 *15:11 0.0432156
5 *15:9 0.0114782
6 *15:7 0.0163288
7 *419:io_in[22] *50:8 0.000677126
8 *15:12 *81:14 0.00569932
9 *15:12 *84:14 0.0182435
10 *15:12 *113:14 0.00391451
11 *3:19 *419:io_in[22] 0
*RES
1 io_in[22] *15:7 37.305 
2 *15:7 *15:9 87.84 
3 *15:9 *15:11 4.5 
4 *15:11 *15:12 387.45 
5 *15:12 *419:io_in[22] 48.105 
*END

*D_NET *16 0.174243
*CONN
*P io_in[23] I
*I *419:io_in[23] I *D wrapped_as2650
*CAP
1 io_in[23] 0.000345489
2 *419:io_in[23] 0.000166616
3 *16:19 0.0109111
4 *16:18 0.0107445
5 *16:16 0.0647971
6 *16:15 0.0647971
7 *16:13 0.0109532
8 *16:11 0.0112987
9 *419:io_in[23] *37:11 0.000229357
10 *16:16 *18:13 0
11 *16:19 *91:11 0
*RES
1 io_in[23] *16:11 3.195 
2 *16:11 *16:13 83.97 
3 *16:13 *16:15 4.5 
4 *16:15 *16:16 504.99 
5 *16:16 *16:18 4.5 
6 *16:18 *16:19 73.35 
7 *16:19 *419:io_in[23] 1.305 
*END

*D_NET *17 0.230227
*CONN
*P io_in[24] I
*I *419:io_in[24] I *D wrapped_as2650
*CAP
1 io_in[24] 0.000201168
2 *419:io_in[24] 0.00461757
3 *17:16 0.0200854
4 *17:15 0.0154679
5 *17:13 0.0946095
6 *17:11 0.0948107
7 *419:io_in[24] *37:11 0.000229357
8 *419:io_in[24] *105:14 0.00020563
*RES
1 io_in[24] *17:11 1.935 
2 *17:11 *17:13 598.95 
3 *17:13 *17:15 4.5 
4 *17:15 *17:16 116.28 
5 *17:16 *419:io_in[24] 28.575 
*END

*D_NET *18 0.199846
*CONN
*P io_in[25] I
*I *419:io_in[25] I *D wrapped_as2650
*CAP
1 io_in[25] 0.000125876
2 *419:io_in[25] 9.76714e-05
3 *18:16 0.0109892
4 *18:15 0.0108915
5 *18:13 0.0888078
6 *18:11 0.0889337
7 *16:16 *18:13 0
*RES
1 io_in[25] *18:11 1.395 
2 *18:11 *18:13 609.75 
3 *18:13 *18:15 4.5 
4 *18:15 *18:16 74.79 
5 *18:16 *419:io_in[25] 0.765 
*END

*D_NET *19 0.228412
*CONN
*P io_in[26] I
*I *419:io_in[26] I *D wrapped_as2650
*CAP
1 io_in[26] 0.00116412
2 *419:io_in[26] 0.00185082
3 *19:11 0.0651048
4 *19:10 0.0644181
5 *419:io_in[26] *50:8 0.00133661
6 *419:io_in[26] *94:9 0.000255412
7 *19:11 *24:19 0
8 *19:11 *27:19 0.00193606
9 *19:11 *43:10 0
10 *19:11 *59:8 0.00129243
11 *19:11 *77:8 0.0910531
12 *419:io_in[19] *19:11 0
13 *3:19 *419:io_in[26] 0
*RES
1 io_in[26] *19:10 17.415 
2 *19:10 *19:11 610.11 
3 *19:11 *419:io_in[26] 27.045 
*END

*D_NET *20 0.235919
*CONN
*P io_in[27] I
*I *419:io_in[27] I *D wrapped_as2650
*CAP
1 io_in[27] 0.0014284
2 *419:io_in[27] 0.000287471
3 *20:11 0.0649099
4 *20:10 0.0646224
5 *20:8 0.0081263
6 *20:7 0.00955469
7 *20:11 *25:15 0.0068781
8 *20:11 *34:11 0.0801113
9 *20:11 *37:11 0
10 *20:11 *80:14 0
11 *4:19 *20:11 0
*RES
1 io_in[27] *20:7 13.365 
2 *20:7 *20:8 62.37 
3 *20:8 *20:10 4.5 
4 *20:10 *20:11 620.01 
5 *20:11 *419:io_in[27] 6.345 
*END

*D_NET *21 0.267731
*CONN
*P io_in[28] I
*I *419:io_in[28] I *D wrapped_as2650
*CAP
1 io_in[28] 0.00231833
2 *419:io_in[28] 0
3 *21:11 0.0617552
4 *21:10 0.0617552
5 *21:8 0.0166292
6 *21:7 0.0189475
7 *21:11 *28:19 0.00231496
8 *1:11 *21:11 0.104011
*RES
1 io_in[28] *21:7 18.765 
2 *21:7 *21:8 127.71 
3 *21:8 *21:10 4.5 
4 *21:10 *21:11 623.79 
5 *21:11 *419:io_in[28] 4.5 
*END

*D_NET *22 0.299084
*CONN
*P io_in[29] I
*I *419:io_in[29] I *D wrapped_as2650
*CAP
1 io_in[29] 0.000177869
2 *419:io_in[29] 0.00203583
3 *22:19 0.0206448
4 *22:18 0.0186089
5 *22:16 0.0272524
6 *22:15 0.0272524
7 *22:13 0.0482604
8 *22:11 0.0484382
9 *22:19 *23:11 0
10 *22:19 *27:19 0.0010606
11 *22:19 *59:8 0.105353
12 *22:19 *95:10 0
*RES
1 io_in[29] *22:11 1.935 
2 *22:11 *22:13 376.11 
3 *22:13 *22:15 4.5 
4 *22:15 *22:16 209.07 
5 *22:16 *22:18 4.5 
6 *22:18 *22:19 271.17 
7 *22:19 *419:io_in[29] 15.525 
*END

*D_NET *23 0.871303
*CONN
*P io_in[2] I
*I *419:io_in[2] I *D wrapped_as2650
*CAP
1 io_in[2] 0.000406292
2 *419:io_in[2] 0.00190494
3 *23:11 0.0251094
4 *23:10 0.0232045
5 *23:8 0.00488715
6 *23:7 0.00529345
7 *23:8 *32:8 0.23976
8 *23:8 *50:11 0.261641
9 *23:8 *77:11 0.0002151
10 *23:11 *32:11 0.217502
11 *23:11 *65:10 0.00148673
12 *23:11 *95:10 0.0894527
13 *12:8 *23:8 0.000440019
14 *22:19 *23:11 0
*RES
1 io_in[2] *23:7 7.785 
2 *23:7 *23:8 673.83 
3 *23:8 *23:10 4.5 
4 *23:10 *23:11 554.31 
5 *23:11 *419:io_in[2] 17.325 
*END

*D_NET *24 0.32268
*CONN
*P io_in[30] I
*I *419:io_in[30] I *D wrapped_as2650
*CAP
1 io_in[30] 0.000113196
2 *419:io_in[30] 0.00130699
3 *24:19 0.0194284
4 *24:18 0.0181214
5 *24:16 0.0355964
6 *24:15 0.0355964
7 *24:13 0.0478937
8 *24:11 0.0480068
9 *419:io_in[30] io_oeb[17] 0.000100522
10 *24:19 *26:19 0.112405
11 *24:19 *43:10 0.00145437
12 *419:io_in[19] *24:19 0.00265691
13 *19:11 *24:19 0
*RES
1 io_in[30] *24:11 1.395 
2 *24:11 *24:13 373.41 
3 *24:13 *24:15 4.5 
4 *24:15 *24:16 273.69 
5 *24:16 *24:18 4.5 
6 *24:18 *24:19 283.05 
7 *24:19 *419:io_in[30] 12.645 
*END

*D_NET *25 0.377063
*CONN
*P io_in[31] I
*I *419:io_in[31] I *D wrapped_as2650
*CAP
1 io_in[31] 0.00177706
2 *419:io_in[31] 0.000388369
3 *25:15 0.00915937
4 *25:14 0.008771
5 *25:12 0.0435352
6 *25:11 0.0435352
7 *25:9 0.045782
8 *25:7 0.0475591
9 *419:io_in[31] *63:9 0
10 *25:15 *34:11 0.00329469
11 *25:15 *36:11 0.0874889
12 *25:15 *76:8 0.0788945
13 *20:11 *25:15 0.0068781
*RES
1 io_in[31] *25:7 13.185 
2 *25:7 *25:9 357.84 
3 *25:9 *25:11 4.5 
4 *25:11 *25:12 335.43 
5 *25:12 *25:14 4.5 
6 *25:14 *25:15 294.93 
7 *25:15 *419:io_in[31] 6.885 
*END

*D_NET *26 0.444869
*CONN
*P io_in[32] I
*I *419:io_in[32] I *D wrapped_as2650
*CAP
1 io_in[32] 0.000323383
2 *419:io_in[32] 0.00129245
3 *26:19 0.00443483
4 *26:18 0.00314238
5 *26:16 0.0533725
6 *26:15 0.0533725
7 *26:13 0.0471573
8 *26:11 0.0474807
9 *26:19 *67:8 0.121887
10 *24:19 *26:19 0.112405
*RES
1 io_in[32] *26:11 3.015 
2 *26:11 *26:13 368.01 
3 *26:13 *26:15 4.5 
4 *26:15 *26:16 411.21 
5 *26:16 *26:18 4.5 
6 *26:18 *26:19 306.81 
7 *26:19 *419:io_in[32] 12.465 
*END

*D_NET *27 0.457756
*CONN
*P io_in[33] I
*I *419:io_in[33] I *D wrapped_as2650
*CAP
1 io_in[33] 0.000242542
2 *419:io_in[33] 0.00166912
3 *27:19 0.00654379
4 *27:18 0.00487467
5 *27:16 0.0624927
6 *27:15 0.0624927
7 *27:13 0.0467825
8 *27:11 0.047025
9 *419:io_in[33] *65:9 0
10 *27:19 *59:8 0.109716
11 *27:19 *77:8 0.00233045
12 *27:19 *99:8 0.11059
13 *19:11 *27:19 0.00193606
14 *22:19 *27:19 0.0010606
*RES
1 io_in[33] *27:11 2.475 
2 *27:11 *27:13 365.31 
3 *27:13 *27:15 4.5 
4 *27:15 *27:16 481.41 
5 *27:16 *27:18 4.5 
6 *27:18 *27:19 318.69 
7 *27:19 *419:io_in[33] 15.165 
*END

*D_NET *28 0.471005
*CONN
*P io_in[34] I
*I *419:io_in[34] I *D wrapped_as2650
*CAP
1 io_in[34] 0.000177869
2 *419:io_in[34] 0
3 *28:19 0.00712525
4 *28:18 0.00712525
5 *28:16 0.0697722
6 *28:15 0.0697722
7 *28:13 0.0464034
8 *28:11 0.0465812
9 *28:19 *37:11 0.0963872
10 *28:19 *39:5 0.124809
11 *1:11 *28:19 0.000536557
12 *21:11 *28:19 0.00231496
*RES
1 io_in[34] *28:11 1.935 
2 *28:11 *28:13 362.61 
3 *28:13 *28:15 4.5 
4 *28:15 *28:16 538.11 
5 *28:16 *28:18 4.5 
6 *28:18 *28:19 330.57 
7 *28:19 *419:io_in[34] 4.5 
*END

*D_NET *29 0.42214
*CONN
*P io_in[35] I
*I *419:io_in[35] I *D wrapped_as2650
*CAP
1 io_in[35] 0.000113196
2 *419:io_in[35] 0.00240598
3 *29:19 0.0264897
4 *29:18 0.0240838
5 *29:16 0.0806405
6 *29:15 0.0806405
7 *29:13 0.0460195
8 *29:11 0.0461327
9 *29:19 *60:8 0.00762057
10 *29:19 *71:8 0.0032028
11 *29:19 *73:10 0.104791
12 *29:19 *96:10 0
*RES
1 io_in[35] *29:11 1.395 
2 *29:11 *29:13 359.91 
3 *29:13 *29:15 4.5 
4 *29:15 *29:16 621.09 
5 *29:16 *29:18 4.5 
6 *29:18 *29:19 341.73 
7 *29:19 *419:io_in[35] 20.655 
*END

*D_NET *30 0.348566
*CONN
*P io_in[36] I
*I *419:io_in[36] I *D wrapped_as2650
*CAP
1 io_in[36] 0.00177706
2 *419:io_in[36] 0.000157606
3 *30:12 0.0824134
4 *30:11 0.0822558
5 *30:9 0.0897734
6 *30:7 0.0915505
7 *419:io_in[36] *37:11 0.000319365
8 *419:io_in[36] *39:5 0.000319365
*RES
1 io_in[36] *30:7 13.185 
2 *30:7 *30:9 696.78 
3 *30:9 *30:11 4.5 
4 *30:11 *30:12 673.11 
5 *30:12 *419:io_in[36] 10.935 
*END

*D_NET *31 0.368111
*CONN
*P io_in[37] I
*I *419:io_in[37] I *D wrapped_as2650
*CAP
1 io_in[37] 0.000323383
2 *419:io_in[37] 2.5517e-05
3 *31:16 0.0907572
4 *31:15 0.0907317
5 *31:13 0.0928411
6 *31:11 0.0931645
7 *419:io_in[37] *106:7 0.000100669
8 *31:16 *214:11 0.000167459
*RES
1 io_in[37] *31:11 3.015 
2 *31:11 *31:13 720.45 
3 *31:13 *31:15 4.5 
4 *31:15 *31:16 742.59 
5 *31:16 *419:io_in[37] 9.27 
*END

*D_NET *32 0.834206
*CONN
*P io_in[3] I
*I *419:io_in[3] I *D wrapped_as2650
*CAP
1 io_in[3] 0.000384734
2 *419:io_in[3] 0.00213224
3 *32:11 0.0214811
4 *32:10 0.0193488
5 *32:8 0.00467246
6 *32:7 0.0050572
7 *419:io_in[3] *99:7 0
8 *32:8 *33:8 0.212597
9 *32:8 *35:8 0.00064283
10 *32:11 *65:10 0.110627
11 *23:8 *32:8 0.23976
12 *23:11 *32:11 0.217502
*RES
1 io_in[3] *32:7 7.605 
2 *32:7 *32:8 610.29 
3 *32:8 *32:10 4.5 
4 *32:10 *32:11 546.57 
5 *32:11 *419:io_in[3] 18.855 
*END

*D_NET *33 0.831834
*CONN
*P io_in[4] I
*I *419:io_in[4] I *D wrapped_as2650
*CAP
1 io_in[4] 0.00045608
2 *419:io_in[4] 0.00107176
3 *33:11 0.00404866
4 *33:10 0.00297689
5 *33:8 0.00454353
6 *33:7 0.00499961
7 *33:8 *34:8 0.185444
8 *33:8 *35:8 0.000944517
9 *33:11 *67:8 0.0100932
10 *2:11 *33:11 0.191499
11 *12:11 *33:11 0.21316
12 *32:8 *33:8 0.212597
*RES
1 io_in[4] *33:7 7.425 
2 *33:7 *33:8 540.99 
3 *33:8 *33:10 4.5 
4 *33:10 *33:11 536.31 
5 *33:11 *419:io_in[4] 11.925 
*END

*D_NET *34 0.688268
*CONN
*P io_in[5] I
*I *419:io_in[5] I *D wrapped_as2650
*CAP
1 io_in[5] 0.000341619
2 *419:io_in[5] 0.000286501
3 *34:11 0.0235216
4 *34:10 0.0232351
5 *34:8 0.00444063
6 *34:7 0.00478225
7 *34:8 *35:8 0.160407
8 *34:11 *36:11 0.202403
9 *34:11 *80:14 0
10 *20:11 *34:11 0.0801113
11 *25:15 *34:11 0.00329469
12 *33:8 *34:8 0.185444
*RES
1 io_in[5] *34:7 7.245 
2 *34:7 *34:8 471.87 
3 *34:8 *34:10 4.5 
4 *34:10 *34:11 527.31 
5 *34:11 *419:io_in[5] 6.525 
*END

*D_NET *35 0.647539
*CONN
*P io_in[6] I
*I *419:io_in[6] I *D wrapped_as2650