*SPEF "ieee 1481-1999"
*DESIGN "user_project_wrapper"
*DATE "11:11:11 Fri 11 11, 1111"
*VENDOR "OpenRCX"
*PROGRAM "Parallel Extraction"
*VERSION "1.0"
*DESIGN_FLOW "NAME_SCOPE LOCAL" "PIN_CAP NONE"
*DIVIDER /
*DELIMITER :
*BUS_DELIMITER []
*T_UNIT 1 NS
*C_UNIT 1 PF
*R_UNIT 1 OHM
*L_UNIT 1 HENRY

*NAME_MAP
*1 io_in[0]
*2 io_in[10]
*3 io_in[11]
*4 io_in[12]
*5 io_in[13]
*6 io_in[14]
*7 io_in[15]
*8 io_in[16]
*9 io_in[17]
*10 io_in[18]
*11 io_in[19]
*12 io_in[1]
*13 io_in[20]
*14 io_in[21]
*15 io_in[22]
*16 io_in[23]
*17 io_in[24]
*18 io_in[25]
*19 io_in[26]
*20 io_in[27]
*21 io_in[28]
*22 io_in[29]
*23 io_in[2]
*24 io_in[30]
*25 io_in[31]
*26 io_in[32]
*27 io_in[33]
*28 io_in[34]
*29 io_in[35]
*30 io_in[36]
*31 io_in[37]
*32 io_in[3]
*33 io_in[4]
*34 io_in[5]
*35 io_in[6]
*36 io_in[7]
*37 io_in[8]
*38 io_in[9]
*39 io_oeb[0]
*40 io_oeb[10]
*41 io_oeb[11]
*42 io_oeb[12]
*43 io_oeb[13]
*44 io_oeb[14]
*45 io_oeb[15]
*46 io_oeb[16]
*47 io_oeb[17]
*48 io_oeb[18]
*49 io_oeb[19]
*50 io_oeb[1]
*51 io_oeb[20]
*52 io_oeb[21]
*53 io_oeb[22]
*54 io_oeb[23]
*55 io_oeb[24]
*56 io_oeb[25]
*57 io_oeb[26]
*58 io_oeb[27]
*59 io_oeb[28]
*60 io_oeb[29]
*61 io_oeb[2]
*62 io_oeb[30]
*63 io_oeb[31]
*64 io_oeb[32]
*65 io_oeb[33]
*66 io_oeb[34]
*67 io_oeb[35]
*68 io_oeb[36]
*69 io_oeb[37]
*70 io_oeb[3]
*71 io_oeb[4]
*72 io_oeb[5]
*73 io_oeb[6]
*74 io_oeb[7]
*75 io_oeb[8]
*76 io_oeb[9]
*77 io_out[0]
*78 io_out[10]
*79 io_out[11]
*80 io_out[12]
*81 io_out[13]
*82 io_out[14]
*83 io_out[15]
*84 io_out[16]
*85 io_out[17]
*86 io_out[18]
*87 io_out[19]
*88 io_out[1]
*89 io_out[20]
*90 io_out[21]
*91 io_out[22]
*92 io_out[23]
*93 io_out[24]
*94 io_out[25]
*95 io_out[26]
*96 io_out[27]
*97 io_out[28]
*98 io_out[29]
*99 io_out[2]
*100 io_out[30]
*101 io_out[31]
*102 io_out[32]
*103 io_out[33]
*104 io_out[34]
*105 io_out[35]
*106 io_out[36]
*107 io_out[37]
*108 io_out[3]
*109 io_out[4]
*110 io_out[5]
*111 io_out[6]
*112 io_out[7]
*113 io_out[8]
*114 io_out[9]
*115 la_data_in[0]
*116 la_data_in[10]
*117 la_data_in[11]
*118 la_data_in[12]
*119 la_data_in[13]
*120 la_data_in[14]
*121 la_data_in[15]
*122 la_data_in[16]
*123 la_data_in[17]
*124 la_data_in[18]
*125 la_data_in[19]
*126 la_data_in[1]
*127 la_data_in[20]
*128 la_data_in[21]
*129 la_data_in[22]
*130 la_data_in[23]
*131 la_data_in[24]
*132 la_data_in[25]
*133 la_data_in[26]
*134 la_data_in[27]
*135 la_data_in[28]
*136 la_data_in[29]
*137 la_data_in[2]
*138 la_data_in[30]
*139 la_data_in[31]
*140 la_data_in[32]
*141 la_data_in[33]
*142 la_data_in[34]
*143 la_data_in[35]
*144 la_data_in[36]
*145 la_data_in[37]
*146 la_data_in[38]
*147 la_data_in[39]
*148 la_data_in[3]
*149 la_data_in[40]
*150 la_data_in[41]
*151 la_data_in[42]
*152 la_data_in[43]
*153 la_data_in[44]
*154 la_data_in[45]
*155 la_data_in[46]
*156 la_data_in[47]
*157 la_data_in[48]
*158 la_data_in[49]
*159 la_data_in[4]
*160 la_data_in[50]
*161 la_data_in[51]
*162 la_data_in[52]
*163 la_data_in[53]
*164 la_data_in[54]
*165 la_data_in[55]
*166 la_data_in[56]
*167 la_data_in[57]
*168 la_data_in[58]
*169 la_data_in[59]
*170 la_data_in[5]
*171 la_data_in[60]
*172 la_data_in[61]
*173 la_data_in[62]
*174 la_data_in[63]
*175 la_data_in[6]
*176 la_data_in[7]
*177 la_data_in[8]
*178 la_data_in[9]
*179 la_data_out[0]
*180 la_data_out[10]
*181 la_data_out[11]
*182 la_data_out[12]
*183 la_data_out[13]
*184 la_data_out[14]
*185 la_data_out[15]
*186 la_data_out[16]
*187 la_data_out[17]
*188 la_data_out[18]
*189 la_data_out[19]
*190 la_data_out[1]
*191 la_data_out[20]
*192 la_data_out[21]
*193 la_data_out[22]
*194 la_data_out[23]
*195 la_data_out[24]
*196 la_data_out[25]
*197 la_data_out[26]
*198 la_data_out[27]
*199 la_data_out[28]
*200 la_data_out[29]
*201 la_data_out[2]
*202 la_data_out[30]
*203 la_data_out[31]
*204 la_data_out[32]
*205 la_data_out[33]
*206 la_data_out[34]
*207 la_data_out[35]
*208 la_data_out[36]
*209 la_data_out[37]
*210 la_data_out[38]
*211 la_data_out[39]
*212 la_data_out[3]
*213 la_data_out[40]
*214 la_data_out[41]
*215 la_data_out[42]
*216 la_data_out[43]
*217 la_data_out[44]
*218 la_data_out[45]
*219 la_data_out[46]
*220 la_data_out[47]
*221 la_data_out[48]
*222 la_data_out[49]
*223 la_data_out[4]
*224 la_data_out[50]
*225 la_data_out[51]
*226 la_data_out[52]
*227 la_data_out[53]
*228 la_data_out[54]
*229 la_data_out[55]
*230 la_data_out[56]
*231 la_data_out[57]
*232 la_data_out[58]
*233 la_data_out[59]
*234 la_data_out[5]
*235 la_data_out[60]
*236 la_data_out[61]
*237 la_data_out[62]
*238 la_data_out[63]
*239 la_data_out[6]
*240 la_data_out[7]
*241 la_data_out[8]
*242 la_data_out[9]
*243 la_oenb[0]
*244 la_oenb[10]
*245 la_oenb[11]
*246 la_oenb[12]
*247 la_oenb[13]
*248 la_oenb[14]
*249 la_oenb[15]
*250 la_oenb[16]
*251 la_oenb[17]
*252 la_oenb[18]
*253 la_oenb[19]
*254 la_oenb[1]
*255 la_oenb[20]
*256 la_oenb[21]
*257 la_oenb[22]
*258 la_oenb[23]
*259 la_oenb[24]
*260 la_oenb[25]
*261 la_oenb[26]
*262 la_oenb[27]
*263 la_oenb[28]
*264 la_oenb[29]
*265 la_oenb[2]
*266 la_oenb[30]
*267 la_oenb[31]
*268 la_oenb[32]
*269 la_oenb[33]
*270 la_oenb[34]
*271 la_oenb[35]
*272 la_oenb[36]
*273 la_oenb[37]
*274 la_oenb[38]
*275 la_oenb[39]
*276 la_oenb[3]
*277 la_oenb[40]
*278 la_oenb[41]
*279 la_oenb[42]
*280 la_oenb[43]
*281 la_oenb[44]
*282 la_oenb[45]
*283 la_oenb[46]
*284 la_oenb[47]
*285 la_oenb[48]
*286 la_oenb[49]
*287 la_oenb[4]
*288 la_oenb[50]
*289 la_oenb[51]
*290 la_oenb[52]
*291 la_oenb[53]
*292 la_oenb[54]
*293 la_oenb[55]
*294 la_oenb[56]
*295 la_oenb[57]
*296 la_oenb[58]
*297 la_oenb[59]
*298 la_oenb[5]
*299 la_oenb[60]
*300 la_oenb[61]
*301 la_oenb[62]
*302 la_oenb[63]
*303 la_oenb[6]
*304 la_oenb[7]
*305 la_oenb[8]
*306 la_oenb[9]
*307 user_clock2
*308 user_irq[0]
*309 user_irq[1]
*310 user_irq[2]
*313 wb_clk_i
*314 wb_rst_i
*315 wbs_ack_o
*316 wbs_adr_i[0]
*317 wbs_adr_i[10]
*318 wbs_adr_i[11]
*319 wbs_adr_i[12]
*320 wbs_adr_i[13]
*321 wbs_adr_i[14]
*322 wbs_adr_i[15]
*323 wbs_adr_i[16]
*324 wbs_adr_i[17]
*325 wbs_adr_i[18]
*326 wbs_adr_i[19]
*327 wbs_adr_i[1]
*328 wbs_adr_i[20]
*329 wbs_adr_i[21]
*330 wbs_adr_i[22]
*331 wbs_adr_i[23]
*332 wbs_adr_i[24]
*333 wbs_adr_i[25]
*334 wbs_adr_i[26]
*335 wbs_adr_i[27]
*336 wbs_adr_i[28]
*337 wbs_adr_i[29]
*338 wbs_adr_i[2]
*339 wbs_adr_i[30]
*340 wbs_adr_i[31]
*341 wbs_adr_i[3]
*342 wbs_adr_i[4]
*343 wbs_adr_i[5]
*344 wbs_adr_i[6]
*345 wbs_adr_i[7]
*346 wbs_adr_i[8]
*347 wbs_adr_i[9]
*348 wbs_cyc_i
*349 wbs_dat_i[0]
*350 wbs_dat_i[10]
*351 wbs_dat_i[11]
*352 wbs_dat_i[12]
*353 wbs_dat_i[13]
*354 wbs_dat_i[14]
*355 wbs_dat_i[15]
*356 wbs_dat_i[16]
*357 wbs_dat_i[17]
*358 wbs_dat_i[18]
*359 wbs_dat_i[19]
*360 wbs_dat_i[1]
*361 wbs_dat_i[20]
*362 wbs_dat_i[21]
*363 wbs_dat_i[22]
*364 wbs_dat_i[23]
*365 wbs_dat_i[24]
*366 wbs_dat_i[25]
*367 wbs_dat_i[26]
*368 wbs_dat_i[27]
*369 wbs_dat_i[28]
*370 wbs_dat_i[29]
*371 wbs_dat_i[2]
*372 wbs_dat_i[30]
*373 wbs_dat_i[31]
*374 wbs_dat_i[3]
*375 wbs_dat_i[4]
*376 wbs_dat_i[5]
*377 wbs_dat_i[6]
*378 wbs_dat_i[7]
*379 wbs_dat_i[8]
*380 wbs_dat_i[9]
*381 wbs_dat_o[0]
*382 wbs_dat_o[10]
*383 wbs_dat_o[11]
*384 wbs_dat_o[12]
*385 wbs_dat_o[13]
*386 wbs_dat_o[14]
*387 wbs_dat_o[15]
*388 wbs_dat_o[16]
*389 wbs_dat_o[17]
*390 wbs_dat_o[18]
*391 wbs_dat_o[19]
*392 wbs_dat_o[1]
*393 wbs_dat_o[20]
*394 wbs_dat_o[21]
*395 wbs_dat_o[22]
*396 wbs_dat_o[23]
*397 wbs_dat_o[24]
*398 wbs_dat_o[25]
*399 wbs_dat_o[26]
*400 wbs_dat_o[27]
*401 wbs_dat_o[28]
*402 wbs_dat_o[29]
*403 wbs_dat_o[2]
*404 wbs_dat_o[30]
*405 wbs_dat_o[31]
*406 wbs_dat_o[3]
*407 wbs_dat_o[4]
*408 wbs_dat_o[5]
*409 wbs_dat_o[6]
*410 wbs_dat_o[7]
*411 wbs_dat_o[8]
*412 wbs_dat_o[9]
*413 wbs_sel_i[0]
*414 wbs_sel_i[1]
*415 wbs_sel_i[2]
*416 wbs_sel_i[3]
*417 wbs_stb_i
*418 wbs_we_i
*419 A_all\[0\]
*420 A_all\[1\]
*421 A_all\[2\]
*422 A_all\[3\]
*423 A_all\[4\]
*424 A_all\[5\]
*425 A_all\[6\]
*426 A_all\[7\]
*427 A_all\[8\]
*428 CEN_all
*429 DAC_clk
*430 DAC_d1
*431 DAC_d2
*432 DAC_le
*433 D_all\[0\]
*434 D_all\[1\]
*435 D_all\[2\]
*436 D_all\[3\]
*437 D_all\[4\]
*438 D_all\[5\]
*439 D_all\[6\]
*440 D_all\[7\]
*441 GWEN_0
*442 GWEN_1
*443 GWEN_2
*444 GWEN_3
*445 GWEN_4
*446 GWEN_5
*447 GWEN_6
*448 GWEN_7
*449 Q0\[0\]
*450 Q0\[1\]
*451 Q0\[2\]
*452 Q0\[3\]
*453 Q0\[4\]
*454 Q0\[5\]
*455 Q0\[6\]
*456 Q0\[7\]
*457 Q1\[0\]
*458 Q1\[1\]
*459 Q1\[2\]
*460 Q1\[3\]
*461 Q1\[4\]
*462 Q1\[5\]
*463 Q1\[6\]
*464 Q1\[7\]
*465 Q2\[0\]
*466 Q2\[1\]
*467 Q2\[2\]
*468 Q2\[3\]
*469 Q2\[4\]
*470 Q2\[5\]
*471 Q2\[6\]
*472 Q2\[7\]
*473 Q3\[0\]
*474 Q3\[1\]
*475 Q3\[2\]
*476 Q3\[3\]
*477 Q3\[4\]
*478 Q3\[5\]
*479 Q3\[6\]
*480 Q3\[7\]
*481 Q4\[0\]
*482 Q4\[1\]
*483 Q4\[2\]
*484 Q4\[3\]
*485 Q4\[4\]
*486 Q4\[5\]
*487 Q4\[6\]
*488 Q4\[7\]
*489 Q5\[0\]
*490 Q5\[1\]
*491 Q5\[2\]
*492 Q5\[3\]
*493 Q5\[4\]
*494 Q5\[5\]
*495 Q5\[6\]
*496 Q5\[7\]
*497 Q6\[0\]
*498 Q6\[1\]
*499 Q6\[2\]
*500 Q6\[3\]
*501 Q6\[4\]
*502 Q6\[5\]
*503 Q6\[6\]
*504 Q6\[7\]
*505 Q7\[0\]
*506 Q7\[1\]
*507 Q7\[2\]
*508 Q7\[3\]
*509 Q7\[4\]
*510 Q7\[5\]
*511 Q7\[6\]
*512 Q7\[7\]
*513 RAM_end_addr\[0\]
*514 RAM_end_addr\[10\]
*515 RAM_end_addr\[11\]
*516 RAM_end_addr\[12\]
*517 RAM_end_addr\[13\]
*518 RAM_end_addr\[14\]
*519 RAM_end_addr\[15\]
*520 RAM_end_addr\[1\]
*521 RAM_end_addr\[2\]
*522 RAM_end_addr\[3\]
*523 RAM_end_addr\[4\]
*524 RAM_end_addr\[5\]
*525 RAM_end_addr\[6\]
*526 RAM_end_addr\[7\]
*527 RAM_end_addr\[8\]
*528 RAM_end_addr\[9\]
*529 RAM_start_addr\[0\]
*530 RAM_start_addr\[10\]
*531 RAM_start_addr\[11\]
*532 RAM_start_addr\[12\]
*533 RAM_start_addr\[13\]
*534 RAM_start_addr\[14\]
*535 RAM_start_addr\[15\]
*536 RAM_start_addr\[1\]
*537 RAM_start_addr\[2\]
*538 RAM_start_addr\[3\]
*539 RAM_start_addr\[4\]
*540 RAM_start_addr\[5\]
*541 RAM_start_addr\[6\]
*542 RAM_start_addr\[7\]
*543 RAM_start_addr\[8\]
*544 RAM_start_addr\[9\]
*545 RXD
*546 TXD
*547 WEN_all\[0\]
*548 WEN_all\[1\]
*549 WEN_all\[2\]
*550 WEN_all\[3\]
*551 WEN_all\[4\]
*552 WEN_all\[5\]
*553 WEN_all\[6\]
*554 WEN_all\[7\]
*555 WEb_ram
*556 boot_rom_en
*557 bus_addr\[0\]
*558 bus_addr\[1\]
*559 bus_addr\[2\]
*560 bus_addr\[3\]
*561 bus_addr\[4\]
*562 bus_addr\[5\]
*563 bus_cyc
*564 bus_data_gpios\[0\]
*565 bus_data_gpios\[1\]
*566 bus_data_gpios\[2\]
*567 bus_data_gpios\[3\]
*568 bus_data_gpios\[4\]
*569 bus_data_gpios\[5\]
*570 bus_data_gpios\[6\]
*571 bus_data_gpios\[7\]
*572 bus_data_out\[0\]
*573 bus_data_out\[1\]
*574 bus_data_out\[2\]
*575 bus_data_out\[3\]
*576 bus_data_out\[4\]
*577 bus_data_out\[5\]
*578 bus_data_out\[6\]
*579 bus_data_out\[7\]
*580 bus_data_serial_ports\[0\]
*581 bus_data_serial_ports\[1\]
*582 bus_data_serial_ports\[2\]
*583 bus_data_serial_ports\[3\]
*584 bus_data_serial_ports\[4\]
*585 bus_data_serial_ports\[5\]
*586 bus_data_serial_ports\[6\]
*587 bus_data_serial_ports\[7\]
*588 bus_data_sid\[0\]
*589 bus_data_sid\[1\]
*590 bus_data_sid\[2\]
*591 bus_data_sid\[3\]
*592 bus_data_sid\[4\]
*593 bus_data_sid\[5\]
*594 bus_data_sid\[6\]
*595 bus_data_sid\[7\]
*596 bus_data_timers\[0\]
*597 bus_data_timers\[1\]
*598 bus_data_timers\[2\]
*599 bus_data_timers\[3\]
*600 bus_data_timers\[4\]
*601 bus_data_timers\[5\]
*602 bus_data_timers\[6\]
*603 bus_data_timers\[7\]
*604 bus_we_gpios
*605 bus_we_serial_ports
*606 bus_we_sid
*607 bus_we_timers
*608 cs_port\[0\]
*609 cs_port\[1\]
*610 cs_port\[2\]
*611 irq0
*612 irq1
*613 irq2
*614 irq3
*615 irq5
*616 irq6
*617 irq7
*618 last_addr\[0\]
*619 last_addr\[10\]
*620 last_addr\[11\]
*621 last_addr\[12\]
*622 last_addr\[13\]
*623 last_addr\[14\]
*624 last_addr\[15\]
*625 last_addr\[1\]
*626 last_addr\[2\]
*627 last_addr\[3\]
*628 last_addr\[4\]
*629 last_addr\[5\]
*630 last_addr\[6\]
*631 last_addr\[7\]
*632 last_addr\[8\]
*633 last_addr\[9\]
*634 le_hi_act
*635 le_lo_act
*636 pwm0
*637 pwm1
*638 pwm2
*639 ram_bus_in\[0\]
*640 ram_bus_in\[1\]
*641 ram_bus_in\[2\]
*642 ram_bus_in\[3\]
*643 ram_bus_in\[4\]
*644 ram_bus_in\[5\]
*645 ram_bus_in\[6\]
*646 ram_bus_in\[7\]
*647 ram_enabled
*648 requested_addr\[0\]
*649 requested_addr\[10\]
*650 requested_addr\[11\]
*651 requested_addr\[12\]
*652 requested_addr\[13\]
*653 requested_addr\[14\]
*654 requested_addr\[15\]
*655 requested_addr\[1\]
*656 requested_addr\[2\]
*657 requested_addr\[3\]
*658 requested_addr\[4\]
*659 requested_addr\[5\]
*660 requested_addr\[6\]
*661 requested_addr\[7\]
*662 requested_addr\[8\]
*663 requested_addr\[9\]
*664 reset
*665 rom_bus_in\[0\]
*666 rom_bus_in\[1\]
*667 rom_bus_in\[2\]
*668 rom_bus_in\[3\]
*669 rom_bus_in\[4\]
*670 rom_bus_in\[5\]
*671 rom_bus_in\[6\]
*672 rom_bus_in\[7\]
*673 rom_bus_out\[0\]
*674 rom_bus_out\[1\]
*675 rom_bus_out\[2\]
*676 rom_bus_out\[3\]
*677 rom_bus_out\[4\]
*678 rom_bus_out\[5\]
*679 rom_bus_out\[6\]
*680 rom_bus_out\[7\]
*681 tmr0_clk
*682 tmr0_o
*683 tmr1_clk
*684 tmr1_o
*685 avali_logo
*686 boot_rom
*687 gpios
*688 ram_controller
*689 serial_ports
*690 sid
*691 sram0
*692 sram1
*693 sram2
*694 sram3
*695 sram4
*696 sram5
*697 sram6
*698 sram7
*699 timers
*700 wrapped_as2650

*PORTS
io_in[0] I
io_in[10] I
io_in[11] I
io_in[12] I
io_in[13] I
io_in[14] I
io_in[15] I
io_in[16] I
io_in[17] I
io_in[18] I
io_in[19] I
io_in[1] I
io_in[20] I
io_in[21] I
io_in[22] I
io_in[23] I
io_in[24] I
io_in[25] I
io_in[26] I
io_in[27] I
io_in[28] I
io_in[29] I
io_in[2] I
io_in[30] I
io_in[31] I
io_in[32] I
io_in[33] I
io_in[34] I
io_in[35] I
io_in[36] I
io_in[37] I
io_in[3] I
io_in[4] I
io_in[5] I
io_in[6] I
io_in[7] I
io_in[8] I
io_in[9] I
io_oeb[0] O
io_oeb[10] O
io_oeb[11] O
io_oeb[12] O
io_oeb[13] O
io_oeb[14] O
io_oeb[15] O
io_oeb[16] O
io_oeb[17] O
io_oeb[18] O
io_oeb[19] O
io_oeb[1] O
io_oeb[20] O
io_oeb[21] O
io_oeb[22] O
io_oeb[23] O
io_oeb[24] O
io_oeb[25] O
io_oeb[26] O
io_oeb[27] O
io_oeb[28] O
io_oeb[29] O
io_oeb[2] O
io_oeb[30] O
io_oeb[31] O
io_oeb[32] O
io_oeb[33] O
io_oeb[34] O
io_oeb[35] O
io_oeb[36] O
io_oeb[37] O
io_oeb[3] O
io_oeb[4] O
io_oeb[5] O
io_oeb[6] O
io_oeb[7] O
io_oeb[8] O
io_oeb[9] O
io_out[0] O
io_out[10] O
io_out[11] O
io_out[12] O
io_out[13] O
io_out[14] O
io_out[15] O
io_out[16] O
io_out[17] O
io_out[18] O
io_out[19] O
io_out[1] O
io_out[20] O
io_out[21] O
io_out[22] O
io_out[23] O
io_out[24] O
io_out[25] O
io_out[26] O
io_out[27] O
io_out[28] O
io_out[29] O
io_out[2] O
io_out[30] O
io_out[31] O
io_out[32] O
io_out[33] O
io_out[34] O
io_out[35] O
io_out[36] O
io_out[37] O
io_out[3] O
io_out[4] O
io_out[5] O
io_out[6] O
io_out[7] O
io_out[8] O
io_out[9] O
la_data_in[0] I
la_data_in[10] I
la_data_in[11] I
la_data_in[12] I
la_data_in[13] I
la_data_in[14] I
la_data_in[15] I
la_data_in[16] I
la_data_in[17] I
la_data_in[18] I
la_data_in[19] I
la_data_in[1] I
la_data_in[20] I
la_data_in[21] I
la_data_in[22] I
la_data_in[23] I
la_data_in[24] I
la_data_in[25] I
la_data_in[26] I
la_data_in[27] I
la_data_in[28] I
la_data_in[29] I
la_data_in[2] I
la_data_in[30] I
la_data_in[31] I
la_data_in[32] I
la_data_in[33] I
la_data_in[34] I
la_data_in[35] I
la_data_in[36] I
la_data_in[37] I
la_data_in[38] I
la_data_in[39] I
la_data_in[3] I
la_data_in[40] I
la_data_in[41] I
la_data_in[42] I
la_data_in[43] I
la_data_in[44] I
la_data_in[45] I
la_data_in[46] I
la_data_in[47] I
la_data_in[48] I
la_data_in[49] I
la_data_in[4] I
la_data_in[50] I
la_data_in[51] I
la_data_in[52] I
la_data_in[53] I
la_data_in[54] I
la_data_in[55] I
la_data_in[56] I
la_data_in[57] I
la_data_in[58] I
la_data_in[59] I
la_data_in[5] I
la_data_in[60] I
la_data_in[61] I
la_data_in[62] I
la_data_in[63] I
la_data_in[6] I
la_data_in[7] I
la_data_in[8] I
la_data_in[9] I
la_data_out[0] O
la_data_out[10] O
la_data_out[11] O
la_data_out[12] O
la_data_out[13] O
la_data_out[14] O
la_data_out[15] O
la_data_out[16] O
la_data_out[17] O
la_data_out[18] O
la_data_out[19] O
la_data_out[1] O
la_data_out[20] O
la_data_out[21] O
la_data_out[22] O
la_data_out[23] O
la_data_out[24] O
la_data_out[25] O
la_data_out[26] O
la_data_out[27] O
la_data_out[28] O
la_data_out[29] O
la_data_out[2] O
la_data_out[30] O
la_data_out[31] O
la_data_out[32] O
la_data_out[33] O
la_data_out[34] O
la_data_out[35] O
la_data_out[36] O
la_data_out[37] O
la_data_out[38] O
la_data_out[39] O
la_data_out[3] O
la_data_out[40] O
la_data_out[41] O
la_data_out[42] O
la_data_out[43] O
la_data_out[44] O
la_data_out[45] O
la_data_out[46] O
la_data_out[47] O
la_data_out[48] O
la_data_out[49] O
la_data_out[4] O
la_data_out[50] O
la_data_out[51] O
la_data_out[52] O
la_data_out[53] O
la_data_out[54] O
la_data_out[55] O
la_data_out[56] O
la_data_out[57] O
la_data_out[58] O
la_data_out[59] O
la_data_out[5] O
la_data_out[60] O
la_data_out[61] O
la_data_out[62] O
la_data_out[63] O
la_data_out[6] O
la_data_out[7] O
la_data_out[8] O
la_data_out[9] O
la_oenb[0] I
la_oenb[10] I
la_oenb[11] I
la_oenb[12] I
la_oenb[13] I
la_oenb[14] I
la_oenb[15] I
la_oenb[16] I
la_oenb[17] I
la_oenb[18] I
la_oenb[19] I
la_oenb[1] I
la_oenb[20] I
la_oenb[21] I
la_oenb[22] I
la_oenb[23] I
la_oenb[24] I
la_oenb[25] I
la_oenb[26] I
la_oenb[27] I
la_oenb[28] I
la_oenb[29] I
la_oenb[2] I
la_oenb[30] I
la_oenb[31] I
la_oenb[32] I
la_oenb[33] I
la_oenb[34] I
la_oenb[35] I
la_oenb[36] I
la_oenb[37] I
la_oenb[38] I
la_oenb[39] I
la_oenb[3] I
la_oenb[40] I
la_oenb[41] I
la_oenb[42] I
la_oenb[43] I
la_oenb[44] I
la_oenb[45] I
la_oenb[46] I
la_oenb[47] I
la_oenb[48] I
la_oenb[49] I
la_oenb[4] I
la_oenb[50] I
la_oenb[51] I
la_oenb[52] I
la_oenb[53] I
la_oenb[54] I
la_oenb[55] I
la_oenb[56] I
la_oenb[57] I
la_oenb[58] I
la_oenb[59] I
la_oenb[5] I
la_oenb[60] I
la_oenb[61] I
la_oenb[62] I
la_oenb[63] I
la_oenb[6] I
la_oenb[7] I
la_oenb[8] I
la_oenb[9] I
user_clock2 I
user_irq[0] O
user_irq[1] O
user_irq[2] O
wb_clk_i I
wb_rst_i I
wbs_ack_o O
wbs_adr_i[0] I
wbs_adr_i[10] I
wbs_adr_i[11] I
wbs_adr_i[12] I
wbs_adr_i[13] I
wbs_adr_i[14] I
wbs_adr_i[15] I
wbs_adr_i[16] I
wbs_adr_i[17] I
wbs_adr_i[18] I
wbs_adr_i[19] I
wbs_adr_i[1] I
wbs_adr_i[20] I
wbs_adr_i[21] I
wbs_adr_i[22] I
wbs_adr_i[23] I
wbs_adr_i[24] I
wbs_adr_i[25] I
wbs_adr_i[26] I
wbs_adr_i[27] I
wbs_adr_i[28] I
wbs_adr_i[29] I
wbs_adr_i[2] I
wbs_adr_i[30] I
wbs_adr_i[31] I
wbs_adr_i[3] I
wbs_adr_i[4] I
wbs_adr_i[5] I
wbs_adr_i[6] I
wbs_adr_i[7] I
wbs_adr_i[8] I
wbs_adr_i[9] I
wbs_cyc_i I
wbs_dat_i[0] I
wbs_dat_i[10] I
wbs_dat_i[11] I
wbs_dat_i[12] I
wbs_dat_i[13] I
wbs_dat_i[14] I
wbs_dat_i[15] I
wbs_dat_i[16] I
wbs_dat_i[17] I
wbs_dat_i[18] I
wbs_dat_i[19] I
wbs_dat_i[1] I
wbs_dat_i[20] I
wbs_dat_i[21] I
wbs_dat_i[22] I
wbs_dat_i[23] I
wbs_dat_i[24] I
wbs_dat_i[25] I
wbs_dat_i[26] I
wbs_dat_i[27] I
wbs_dat_i[28] I
wbs_dat_i[29] I
wbs_dat_i[2] I
wbs_dat_i[30] I
wbs_dat_i[31] I
wbs_dat_i[3] I
wbs_dat_i[4] I
wbs_dat_i[5] I
wbs_dat_i[6] I
wbs_dat_i[7] I
wbs_dat_i[8] I
wbs_dat_i[9] I
wbs_dat_o[0] O
wbs_dat_o[10] O
wbs_dat_o[11] O
wbs_dat_o[12] O
wbs_dat_o[13] O
wbs_dat_o[14] O
wbs_dat_o[15] O
wbs_dat_o[16] O
wbs_dat_o[17] O
wbs_dat_o[18] O
wbs_dat_o[19] O
wbs_dat_o[1] O
wbs_dat_o[20] O
wbs_dat_o[21] O
wbs_dat_o[22] O
wbs_dat_o[23] O
wbs_dat_o[24] O
wbs_dat_o[25] O
wbs_dat_o[26] O
wbs_dat_o[27] O
wbs_dat_o[28] O
wbs_dat_o[29] O
wbs_dat_o[2] O
wbs_dat_o[30] O
wbs_dat_o[31] O
wbs_dat_o[3] O
wbs_dat_o[4] O
wbs_dat_o[5] O
wbs_dat_o[6] O
wbs_dat_o[7] O
wbs_dat_o[8] O
wbs_dat_o[9] O
wbs_sel_i[0] I
wbs_sel_i[1] I
wbs_sel_i[2] I
wbs_sel_i[3] I
wbs_stb_i I
wbs_we_i I

*D_NET *1 0.437195
*CONN
*P io_in[0] I
*I *700:io_in[0] I *D wrapped_as2650
*CAP
1 io_in[0] 0.101982
2 *700:io_in[0] 0.00046777
3 *1:9 0.0677232
4 *1:7 0.0672554
5 *1:5 0.101982
6 *700:io_in[0] *700:io_in[4] 0.00335718
7 *700:io_in[0] *19:13 0.000345989
8 *700:io_in[0] *35:17 0
9 *700:io_in[0] *96:19 0.00335718
10 *1:5 la_data_out[17] 0
11 *1:5 la_data_out[44] 0
12 *1:5 *190:13 0
13 *1:5 *319:9 0.00693948
14 *1:5 *350:9 0
15 *1:5 *357:9 0
16 *1:9 *700:rom_bus_in[0] 0
17 *1:9 *700:rom_bus_in[6] 0
18 *1:9 *33:17 0.00271447
19 *1:9 *39:9 0.0159854
20 *1:9 *40:25 0
21 *1:9 *43:9 0.00535551
22 *1:9 *45:9 0.0503636
23 *1:9 *81:9 0.00513571
24 *1:9 *108:9 0.0042304
25 *1:9 *375:13 0
*RES
1 io_in[0] *1:5 733.286 
2 *1:5 *1:7 4.5 
3 *1:7 *1:9 535.42 
4 *1:9 *700:io_in[0] 19.602 
*END

*D_NET *2 0.324809
*CONN
*P io_in[10] I
*I *700:io_in[10] I *D wrapped_as2650
*CAP
1 io_in[10] 0.00226233
2 *700:io_in[10] 0.000496822
3 *2:21 0.00347665
4 *2:19 0.00479086
5 *2:13 0.0644178
6 *2:11 0.064869
7 *2:11 *76:14 0.000667877
8 *2:11 *79:25 0.00817992
9 *2:13 *687:data_in[1] 0.000210829
10 *2:13 *652:7 0.000422014
11 *2:19 *37:23 0.00508702
12 *2:19 *516:27 0.000170158
13 *2:21 *19:13 6.43727e-05
14 *2:21 *37:25 0.118745
15 *2:21 *41:21 0.0383786
16 *2:21 *617:14 0.00676175
17 *2:21 *626:9 0.00361739
18 *2:21 *627:9 0.00219074
*RES
1 io_in[10] *2:11 35.4181 
2 *2:11 *2:13 187.141 
3 *2:13 *2:19 26.176 
4 *2:19 *2:21 98.3682 
5 *2:21 *700:io_in[10] 16.2659 
*END

*D_NET *3 0.444091
*CONN
*P io_in[11] I
*I *700:io_in[11] I *D wrapped_as2650
*CAP
1 io_in[11] 0.0277582
2 *700:io_in[11] 0.000243503
3 *3:13 0.0127225
4 *3:11 0.012479
5 *3:9 0.00446462
6 *3:7 0.00446462
7 *3:5 0.0277582
8 *3:5 *89:9 0
9 *3:9 *81:23 0.00497979
10 *3:9 *95:13 0.0173167
11 *3:9 *430:13 0.00308594
12 *3:9 *615:13 0.00134062
13 *3:13 *22:13 0.202808
14 *3:13 *96:19 0.00774192
15 *3:13 *607:9 0.116927
*RES
1 io_in[11] *3:5 193.99 
2 *3:5 *3:7 4.5 
3 *3:7 *3:9 57.684 
4 *3:9 *3:11 4.5 
5 *3:11 *3:13 491.036 
6 *3:13 *700:io_in[11] 5.754 
*END

*D_NET *4 0.616271
*CONN
*P io_in[12] I
*I *700:io_in[12] I *D wrapped_as2650
*CAP
1 io_in[12] 0.00102637
2 *700:io_in[12] 0.000769145
3 *4:21 0.0111941
4 *4:19 0.0129811
5 *4:13 0.0194359
6 *4:11 0.0168798
7 *4:9 0.00569591
8 *4:7 0.00672227
9 *4:9 io_oeb[11] 0.00124495
10 *4:9 *5:9 0.0292997
11 *4:9 *79:25 0.00101317
12 *4:13 *600:13 0.0597478
13 *4:19 *5:27 0.00694287
14 *4:19 *81:23 0
15 *4:21 *700:bus_in_serial_ports[7] 0.000147307
16 *4:21 *5:29 0.244629
17 *4:21 *41:21 0.000450401
18 *4:21 *97:14 0
19 *4:21 *523:17 0.00560144
20 *4:21 *608:13 0.0114738
21 *4:21 *609:21 0.00482373
22 *4:21 *610:21 0.00525918
23 *4:21 *625:15 0.170933
*RES
1 io_in[12] *4:7 11.378 
2 *4:7 *4:9 74.86 
3 *4:9 *4:11 4.5 
4 *4:11 *4:13 188.708 
5 *4:13 *4:19 42.5621 
6 *4:19 *4:21 203.432 
7 *4:21 *700:io_in[12] 17.9759 
*END

*D_NET *5 0.551349
*CONN
*P io_in[13] I
*I *700:io_in[13] I *D wrapped_as2650
*CAP
1 io_in[13] 0.00105204
2 *700:io_in[13] 0.000737081
3 *5:29 0.00662873
4 *5:27 0.00652886
5 *5:21 0.00194035
6 *5:19 0.00314503
7 *5:13 0.00935486
8 *5:11 0.00751297
9 *5:9 0.0131899
10 *5:7 0.0142419
11 *5:9 io_oeb[11] 0.00132558
12 *5:9 *42:25 0.00169431
13 *5:9 *79:25 0.00341808
14 *5:13 io_oeb[10] 0.00596612
15 *5:19 io_oeb[10] 0
16 *5:19 *687:DAC_clk 0.00390584
17 *5:19 *429:17 8.05328e-06
18 *5:21 *28:21 0.000556452
19 *5:21 *97:6 0.0346675
20 *5:21 *101:11 0.000341626
21 *5:21 *429:17 0.0417784
22 *5:27 *100:21 0.00748307
23 *5:27 *598:17 0.0012533
24 *5:29 *41:21 0.0788414
25 *5:29 *599:29 0.0109271
26 *5:29 *600:21 0.0139793
27 *4:9 *5:9 0.0292997
28 *4:19 *5:27 0.00694287
29 *4:21 *5:29 0.244629
*RES
1 io_in[13] *5:7 11.53 
2 *5:7 *5:9 126.236 
3 *5:9 *5:11 4.5 
4 *5:11 *5:13 71.896 
5 *5:13 *5:19 17.024 
6 *5:19 *5:21 101.156 
7 *5:21 *5:27 45.2384 
8 *5:27 *5:29 201.777 
9 *5:29 *700:io_in[13] 17.7316 
*END

*D_NET *6 0.352574
*CONN
*P io_in[14] I
*I *700:io_in[14] I *D wrapped_as2650
*CAP
1 io_in[14] 0.0718758
2 *700:io_in[14] 0.00100594
3 *6:13 0.019904
4 *6:11 0.018898
5 *6:9 0.0316712
6 *6:7 0.0316712
7 *6:5 0.0718758
8 *6:13 *34:21 0.010297
9 *6:13 *36:21 4.20487e-05
10 *6:13 *97:14 0.0100451
11 *6:13 *527:13 0
12 *6:13 *616:23 0.0852882
*RES
1 io_in[14] *6:5 416.974 
2 *6:5 *6:7 4.5 
3 *6:7 *6:9 214.7 
4 *6:9 *6:11 4.5 
5 *6:11 *6:13 257.108 
6 *6:13 *700:io_in[14] 10.162 
*END

*D_NET *7 0.425515
*CONN
*P io_in[15] I
*I *700:io_in[15] I *D wrapped_as2650
*CAP
1 io_in[15] 0.0011247
2 *700:io_in[15] 0.00194905
3 *7:23 0.0274233
4 *7:21 0.0254743
5 *7:19 0.0349029
6 *7:17 0.0349029
7 *7:15 0.0352279
8 *7:13 0.0363526
9 *7:15 *11:9 0.0134431
10 *7:15 *15:9 0.00603199
11 *7:15 *91:17 0.00811157
12 *7:15 *92:17 0.112264
13 *7:19 *591:10 0.0183575
14 *7:23 *572:9 0.0699487
*RES
1 io_in[15] *7:13 21.3796 
2 *7:13 *7:15 164.741 
3 *7:15 *7:17 4.5 
4 *7:17 *7:19 247.822 
5 *7:19 *7:21 4.5 
6 *7:21 *7:23 262.124 
7 *7:23 *700:io_in[15] 14.722 
*END

*D_NET *8 0.368168
*CONN
*P io_in[16] I
*I *700:io_in[16] I *D wrapped_as2650
*CAP
1 io_in[16] 0.000955437
2 *700:io_in[16] 0.0104689
3 *8:19 0.0104689
4 *8:17 0.037819
5 *8:15 0.037819
6 *8:13 0.0237424
7 *8:11 0.0237424
8 *8:9 0.0115242
9 *8:7 0.0124796
10 *8:9 *11:9 0.000484289
11 *8:9 *13:9 0.00200411
12 *8:9 *14:9 0.0841684
13 *8:9 *15:9 0.000373528
14 *8:9 *89:17 0.000906665
15 *8:9 *90:17 0.0842863
16 *8:9 *91:17 0.00198331
17 *8:13 *546:13 0.0249418
18 *8:13 *558:27 0
*RES
1 io_in[16] *8:7 11.074 
2 *8:7 *8:9 296.78 
3 *8:9 *8:11 4.5 
4 *8:11 *8:13 189.772 
5 *8:13 *8:15 4.5 
6 *8:15 *8:17 265.316 
7 *8:17 *8:19 4.5 
8 *8:19 *700:io_in[16] 69.502 
*END

*D_NET *9 0.240862
*CONN
*P io_in[17] I
*I *700:io_in[17] I *D wrapped_as2650
*CAP
1 io_in[17] 0.00488289
2 *700:io_in[17] 0.000611598
3 *9:17 0.00252743
4 *9:15 0.00191583
5 *9:13 0.0326598
6 *9:11 0.0326598
7 *9:9 0.0572916
8 *9:7 0.0621745
9 *9:7 *89:13 0.00316442
10 *9:13 *563:5 0
11 *9:17 *10:17 0.0237302
12 *9:17 *41:21 0.00312088
13 *9:17 *96:19 0
14 *9:17 *608:13 0
15 *9:17 *615:17 0.0161233
*RES
1 io_in[17] *9:7 45.73 
2 *9:7 *9:9 407.588 
3 *9:9 *9:11 4.5 
4 *9:11 *9:13 221.084 
5 *9:13 *9:15 4.5 
6 *9:15 *9:17 61.028 
7 *9:17 *700:io_in[17] 8.034 
*END

*D_NET *10 0.203452
*CONN
*P io_in[18] I
*I *700:io_in[18] I *D wrapped_as2650
*CAP
1 io_in[18] 0.00830189
2 *700:io_in[18] 0.000646289
3 *10:17 0.00394541
4 *10:15 0.00329912
5 *10:13 0.0306459
6 *10:11 0.0306459
7 *10:9 0.0444231
8 *10:7 0.0444231
9 *10:5 0.00830189
10 *10:9 *587:19 0
11 *10:13 *563:5 0
12 *10:17 *41:21 0.00238823
13 *10:17 *608:13 0.00223176
14 *10:17 *615:17 0.000469293
15 *9:17 *10:17 0.0237302
*RES
1 io_in[18] *10:5 54.91 
2 *10:5 *10:7 4.5 
3 *10:7 *10:9 315.476 
4 *10:9 *10:11 4.5 
5 *10:11 *10:13 207.252 
6 *10:13 *10:15 4.5 
7 *10:15 *10:17 59.66 
8 *10:17 *700:io_in[18] 8.186 
*END

*D_NET *11 0.240897
*CONN
*P io_in[19] I
*I *687:io_in[0] I *D gpios
*CAP
1 io_in[19] 0.00114549
2 *687:io_in[0] 0.00430283
3 *11:19 0.00624902
4 *11:13 0.019498
5 *11:11 0.0175518
6 *11:9 0.0141244
7 *11:7 0.0152699
8 *687:io_in[0] *41:25 0.000510164
9 *11:9 *91:17 0.0793556
10 *11:13 *51:13 0.0589048
11 *11:19 *90:9 0.0100576
12 *11:19 *572:72 0
13 *11:19 *576:49 0
14 *11:19 *682:23 0
15 *7:15 *11:9 0.0134431
16 *8:9 *11:9 0.000484289
*RES
1 io_in[19] *11:7 11.682 
2 *11:7 *11:9 196.156 
3 *11:9 *11:11 4.5 
4 *11:11 *11:13 191.292 
5 *11:13 *11:19 33.7 
6 *11:19 *687:io_in[0] 26.638 
*END

*D_NET *12 0.864451
*CONN
*P io_in[1] I
*I *700:io_in[1] I *D wrapped_as2650
*CAP
1 io_in[1] 0.001047
2 *700:io_in[1] 0.00061188
3 *12:17 0.00927125
4 *12:15 0.00865937
5 *12:13 0.0143589
6 *12:11 0.0143589
7 *12:9 0.016276
8 *12:7 0.017323
9 *700:io_in[1] *700:io_in[2] 0.00587618
10 *700:io_in[1] *700:io_in[4] 0.00493487
11 *700:io_in[1] *19:13 0.000405956
12 *700:io_in[1] *96:19 0.000327059
13 *12:9 *23:9 0.0195859
14 *12:9 *61:17 0.000535473
15 *12:9 *88:14 0.0102745
16 *12:13 *23:13 0.300199
17 *12:13 *66:17 0.231333
18 *12:17 *23:17 0.132216
19 *12:17 *342:5 0.013064
20 *12:17 *676:9 0.0637917
*RES
1 io_in[1] *12:7 11.53 
2 *12:7 *12:9 154.204 
3 *12:9 *12:11 4.5 
4 *12:11 *12:13 728.916 
5 *12:13 *12:15 4.5 
6 *12:15 *12:17 327.484 
7 *12:17 *700:io_in[1] 26.138 
*END

*D_NET *13 0.319665
*CONN
*P io_in[20] I
*I *687:io_in[1] I *D gpios
*CAP
1 io_in[20] 0.000902652
2 *687:io_in[1] 0.00321482
3 *13:19 0.00549406
4 *13:13 0.0308999
5 *13:11 0.0286207
6 *13:9 0.00395164
7 *13:7 0.00485429
8 *13:9 *53:17 0.00979176
9 *13:9 *87:17 0.0889304
10 *13:9 *89:17 0.111828
11 *13:13 *18:17 0.0127682
12 *13:13 *597:17 0.0046143
13 *13:19 *89:9 0.0117908
14 *8:9 *13:9 0.00200411
*RES
1 io_in[20] *13:7 10.618 
2 *13:7 *13:9 283.556 
3 *13:9 *13:11 4.5 
4 *13:11 *13:13 199.196 
5 *13:13 *13:19 37.956 
6 *13:19 *687:io_in[1] 19.798 
*END

*D_NET *14 0.440648
*CONN
*P io_in[21] I
*I *687:io_in[2] I *D gpios
*CAP
1 io_in[21] 0.000946379
2 *687:io_in[2] 0.00396589
3 *14:17 0.00533632
4 *14:15 0.00137043
5 *14:13 0.00269881
6 *14:11 0.00269881
7 *14:9 0.00184287
8 *14:7 0.00278925
9 *14:9 *53:17 0.00852796
10 *14:9 *54:17 0.0488973
11 *14:9 *89:17 0.1225
12 *14:9 *90:17 0.00700795
13 *14:13 *17:9 0.0762285
14 *14:13 *90:13 0.0363623
15 *14:13 *596:17 0.00261853
16 *14:17 *699:bus_we 0.0152897
17 *14:17 *313:184 0.000469261
18 *14:17 *612:9 0.016163
19 *14:17 *613:9 0.000450206
20 *14:17 *615:9 0.000316674
21 *8:9 *14:9 0.0841684
*RES
1 io_in[21] *14:7 10.922 
2 *14:7 *14:9 355.3 
3 *14:9 *14:11 4.5 
4 *14:11 *14:13 194.028 
5 *14:13 *14:15 4.5 
6 *14:15 *14:17 48.868 
7 *14:17 *687:io_in[2] 29.162 
*END

*D_NET *15 0.513231
*CONN
*P io_in[22] I
*I *687:io_in[3] I *D gpios
*CAP
1 io_in[22] 0.0010248
2 *687:io_in[3] 0.00110108
3 *15:17 0.00508732
4 *15:15 0.00398624
5 *15:13 0.0196018
6 *15:11 0.0196018
7 *15:9 0.00129035
8 *15:7 0.00231514
9 *15:9 *54:17 0.012261
10 *15:9 *90:17 0.159811
11 *15:9 *91:17 0.185303
12 *15:13 *429:13 0.0651443
13 *15:13 *603:14 0.0120968
14 *15:17 *431:17 0.0179323
15 *15:17 *577:61 0.000268679
16 *7:15 *15:9 0.00603199
17 *8:9 *15:9 0.000373528
*RES
1 io_in[22] *15:7 11.378 
2 *15:7 *15:9 447.26 
3 *15:9 *15:11 4.5 
4 *15:11 *15:13 212.116 
5 *15:13 *15:15 4.5 
6 *15:15 *15:17 48.564 
7 *15:17 *687:io_in[3] 10.618 
*END

*D_NET *16 0.303163
*CONN
*P io_in[23] I
*I *687:io_in[4] I *D gpios
*CAP
1 io_in[23] 0.00308449
2 *687:io_in[4] 0.000690341
3 *16:19 0.000911594
4 *16:13 0.0161926
5 *16:11 0.0159714
6 *16:9 0.0771085
7 *16:7 0.080193
8 *16:7 *45:9 0.00186332
9 *16:13 *93:13 0.074105
10 *16:19 *687:io_in[12] 0.000345966
11 *16:19 *19:21 0.0159477
12 *16:19 *95:9 0.0159545
13 *16:19 *100:17 0.000794899
*RES
1 io_in[23] *16:7 27.49 
2 *16:7 *16:9 548.796 
3 *16:9 *16:11 4.5 
4 *16:11 *16:13 198.436 
5 *16:13 *16:19 47.988 
6 *16:19 *687:io_in[4] 3.686 
*END

*D_NET *17 0.311837
*CONN
*P io_in[24] I
*I *687:io_in[5] I *D gpios
*CAP
1 io_in[24] 0.085613
2 *687:io_in[5] 0.00212991
3 *17:13 0.00720292
4 *17:11 0.00507301
5 *17:9 0.0150517
6 *17:7 0.0150517
7 *17:5 0.085613