*SPEF "ieee 1481-1999"
*DESIGN "user_project_wrapper"
*DATE "11:11:11 Fri 11 11, 1111"
*VENDOR "OpenRCX"
*PROGRAM "Parallel Extraction"
*VERSION "1.0"
*DESIGN_FLOW "NAME_SCOPE LOCAL" "PIN_CAP NONE"
*DIVIDER /
*DELIMITER :
*BUS_DELIMITER []
*T_UNIT 1 NS
*C_UNIT 1 PF
*R_UNIT 1 OHM
*L_UNIT 1 HENRY

*NAME_MAP
*1 io_in[0]
*2 io_in[10]
*3 io_in[11]
*4 io_in[12]
*5 io_in[13]
*6 io_in[14]
*7 io_in[15]
*8 io_in[16]
*9 io_in[17]
*10 io_in[18]
*11 io_in[19]
*12 io_in[1]
*13 io_in[20]
*14 io_in[21]
*15 io_in[22]
*16 io_in[23]
*17 io_in[24]
*18 io_in[25]
*19 io_in[26]
*20 io_in[27]
*21 io_in[28]
*22 io_in[29]
*23 io_in[2]
*24 io_in[30]
*25 io_in[31]
*26 io_in[32]
*27 io_in[33]
*28 io_in[34]
*29 io_in[35]
*30 io_in[36]
*31 io_in[37]
*32 io_in[3]
*33 io_in[4]
*34 io_in[5]
*35 io_in[6]
*36 io_in[7]
*37 io_in[8]
*38 io_in[9]
*39 io_oeb[0]
*40 io_oeb[10]
*41 io_oeb[11]
*42 io_oeb[12]
*43 io_oeb[13]
*44 io_oeb[14]
*45 io_oeb[15]
*46 io_oeb[16]
*47 io_oeb[17]
*48 io_oeb[18]
*49 io_oeb[19]
*50 io_oeb[1]
*51 io_oeb[20]
*52 io_oeb[21]
*53 io_oeb[22]
*54 io_oeb[23]
*55 io_oeb[24]
*56 io_oeb[25]
*57 io_oeb[26]
*58 io_oeb[27]
*59 io_oeb[28]
*60 io_oeb[29]
*61 io_oeb[2]
*62 io_oeb[30]
*63 io_oeb[31]
*64 io_oeb[32]
*65 io_oeb[33]
*66 io_oeb[34]
*67 io_oeb[35]
*68 io_oeb[36]
*69 io_oeb[37]
*70 io_oeb[3]
*71 io_oeb[4]
*72 io_oeb[5]
*73 io_oeb[6]
*74 io_oeb[7]
*75 io_oeb[8]
*76 io_oeb[9]
*77 io_out[0]
*78 io_out[10]
*79 io_out[11]
*80 io_out[12]
*81 io_out[13]
*82 io_out[14]
*83 io_out[15]
*84 io_out[16]
*85 io_out[17]
*86 io_out[18]
*87 io_out[19]
*88 io_out[1]
*89 io_out[20]
*90 io_out[21]
*91 io_out[22]
*92 io_out[23]
*93 io_out[24]
*94 io_out[25]
*95 io_out[26]
*96 io_out[27]
*97 io_out[28]
*98 io_out[29]
*99 io_out[2]
*100 io_out[30]
*101 io_out[31]
*102 io_out[32]
*103 io_out[33]
*104 io_out[34]
*105 io_out[35]
*106 io_out[36]
*107 io_out[37]
*108 io_out[3]
*109 io_out[4]
*110 io_out[5]
*111 io_out[6]
*112 io_out[7]
*113 io_out[8]
*114 io_out[9]
*115 la_data_in[0]
*116 la_data_in[10]
*117 la_data_in[11]
*118 la_data_in[12]
*119 la_data_in[13]
*120 la_data_in[14]
*121 la_data_in[15]
*122 la_data_in[16]
*123 la_data_in[17]
*124 la_data_in[18]
*125 la_data_in[19]
*126 la_data_in[1]
*127 la_data_in[20]
*128 la_data_in[21]
*129 la_data_in[22]
*130 la_data_in[23]
*131 la_data_in[24]
*132 la_data_in[25]
*133 la_data_in[26]
*134 la_data_in[27]
*135 la_data_in[28]
*136 la_data_in[29]
*137 la_data_in[2]
*138 la_data_in[30]
*139 la_data_in[31]
*140 la_data_in[32]
*141 la_data_in[33]
*142 la_data_in[34]
*143 la_data_in[35]
*144 la_data_in[36]
*145 la_data_in[37]
*146 la_data_in[38]
*147 la_data_in[39]
*148 la_data_in[3]
*149 la_data_in[40]
*150 la_data_in[41]
*151 la_data_in[42]
*152 la_data_in[43]
*153 la_data_in[44]
*154 la_data_in[45]
*155 la_data_in[46]
*156 la_data_in[47]
*157 la_data_in[48]
*158 la_data_in[49]
*159 la_data_in[4]
*160 la_data_in[50]
*161 la_data_in[51]
*162 la_data_in[52]
*163 la_data_in[53]
*164 la_data_in[54]
*165 la_data_in[55]
*166 la_data_in[56]
*167 la_data_in[57]
*168 la_data_in[58]
*169 la_data_in[59]
*170 la_data_in[5]
*171 la_data_in[60]
*172 la_data_in[61]
*173 la_data_in[62]
*174 la_data_in[63]
*175 la_data_in[6]
*176 la_data_in[7]
*177 la_data_in[8]
*178 la_data_in[9]
*179 la_data_out[0]
*180 la_data_out[10]
*181 la_data_out[11]
*182 la_data_out[12]
*183 la_data_out[13]
*184 la_data_out[14]
*185 la_data_out[15]
*186 la_data_out[16]
*187 la_data_out[17]
*188 la_data_out[18]
*189 la_data_out[19]
*190 la_data_out[1]
*191 la_data_out[20]
*192 la_data_out[21]
*193 la_data_out[22]
*194 la_data_out[23]
*195 la_data_out[24]
*196 la_data_out[25]
*197 la_data_out[26]
*198 la_data_out[27]
*199 la_data_out[28]
*200 la_data_out[29]
*201 la_data_out[2]
*202 la_data_out[30]
*203 la_data_out[31]
*204 la_data_out[32]
*205 la_data_out[33]
*206 la_data_out[34]
*207 la_data_out[35]
*208 la_data_out[36]
*209 la_data_out[37]
*210 la_data_out[38]
*211 la_data_out[39]
*212 la_data_out[3]
*213 la_data_out[40]
*214 la_data_out[41]
*215 la_data_out[42]
*216 la_data_out[43]
*217 la_data_out[44]
*218 la_data_out[45]
*219 la_data_out[46]
*220 la_data_out[47]
*221 la_data_out[48]
*222 la_data_out[49]
*223 la_data_out[4]
*224 la_data_out[50]
*225 la_data_out[51]
*226 la_data_out[52]
*227 la_data_out[53]
*228 la_data_out[54]
*229 la_data_out[55]
*230 la_data_out[56]
*231 la_data_out[57]
*232 la_data_out[58]
*233 la_data_out[59]
*234 la_data_out[5]
*235 la_data_out[60]
*236 la_data_out[61]
*237 la_data_out[62]
*238 la_data_out[63]
*239 la_data_out[6]
*240 la_data_out[7]
*241 la_data_out[8]
*242 la_data_out[9]
*243 la_oenb[0]
*244 la_oenb[10]
*245 la_oenb[11]
*246 la_oenb[12]
*247 la_oenb[13]
*248 la_oenb[14]
*249 la_oenb[15]
*250 la_oenb[16]
*251 la_oenb[17]
*252 la_oenb[18]
*253 la_oenb[19]
*254 la_oenb[1]
*255 la_oenb[20]
*256 la_oenb[21]
*257 la_oenb[22]
*258 la_oenb[23]
*259 la_oenb[24]
*260 la_oenb[25]
*261 la_oenb[26]
*262 la_oenb[27]
*263 la_oenb[28]
*264 la_oenb[29]
*265 la_oenb[2]
*266 la_oenb[30]
*267 la_oenb[31]
*268 la_oenb[32]
*269 la_oenb[33]
*270 la_oenb[34]
*271 la_oenb[35]
*272 la_oenb[36]
*273 la_oenb[37]
*274 la_oenb[38]
*275 la_oenb[39]
*276 la_oenb[3]
*277 la_oenb[40]
*278 la_oenb[41]
*279 la_oenb[42]
*280 la_oenb[43]
*281 la_oenb[44]
*282 la_oenb[45]
*283 la_oenb[46]
*284 la_oenb[47]
*285 la_oenb[48]
*286 la_oenb[49]
*287 la_oenb[4]
*288 la_oenb[50]
*289 la_oenb[51]
*290 la_oenb[52]
*291 la_oenb[53]
*292 la_oenb[54]
*293 la_oenb[55]
*294 la_oenb[56]
*295 la_oenb[57]
*296 la_oenb[58]
*297 la_oenb[59]
*298 la_oenb[5]
*299 la_oenb[60]
*300 la_oenb[61]
*301 la_oenb[62]
*302 la_oenb[63]
*303 la_oenb[6]
*304 la_oenb[7]
*305 la_oenb[8]
*306 la_oenb[9]
*307 user_clock2
*308 user_irq[0]
*309 user_irq[1]
*310 user_irq[2]
*313 wb_clk_i
*314 wb_rst_i
*315 wbs_ack_o
*316 wbs_adr_i[0]
*317 wbs_adr_i[10]
*318 wbs_adr_i[11]
*319 wbs_adr_i[12]
*320 wbs_adr_i[13]
*321 wbs_adr_i[14]
*322 wbs_adr_i[15]
*323 wbs_adr_i[16]
*324 wbs_adr_i[17]
*325 wbs_adr_i[18]
*326 wbs_adr_i[19]
*327 wbs_adr_i[1]
*328 wbs_adr_i[20]
*329 wbs_adr_i[21]
*330 wbs_adr_i[22]
*331 wbs_adr_i[23]
*332 wbs_adr_i[24]
*333 wbs_adr_i[25]
*334 wbs_adr_i[26]
*335 wbs_adr_i[27]
*336 wbs_adr_i[28]
*337 wbs_adr_i[29]
*338 wbs_adr_i[2]
*339 wbs_adr_i[30]
*340 wbs_adr_i[31]
*341 wbs_adr_i[3]
*342 wbs_adr_i[4]
*343 wbs_adr_i[5]
*344 wbs_adr_i[6]
*345 wbs_adr_i[7]
*346 wbs_adr_i[8]
*347 wbs_adr_i[9]
*348 wbs_cyc_i
*349 wbs_dat_i[0]
*350 wbs_dat_i[10]
*351 wbs_dat_i[11]
*352 wbs_dat_i[12]
*353 wbs_dat_i[13]
*354 wbs_dat_i[14]
*355 wbs_dat_i[15]
*356 wbs_dat_i[16]
*357 wbs_dat_i[17]
*358 wbs_dat_i[18]
*359 wbs_dat_i[19]
*360 wbs_dat_i[1]
*361 wbs_dat_i[20]
*362 wbs_dat_i[21]
*363 wbs_dat_i[22]
*364 wbs_dat_i[23]
*365 wbs_dat_i[24]
*366 wbs_dat_i[25]
*367 wbs_dat_i[26]
*368 wbs_dat_i[27]
*369 wbs_dat_i[28]
*370 wbs_dat_i[29]
*371 wbs_dat_i[2]
*372 wbs_dat_i[30]
*373 wbs_dat_i[31]
*374 wbs_dat_i[3]
*375 wbs_dat_i[4]
*376 wbs_dat_i[5]
*377 wbs_dat_i[6]
*378 wbs_dat_i[7]
*379 wbs_dat_i[8]
*380 wbs_dat_i[9]
*381 wbs_dat_o[0]
*382 wbs_dat_o[10]
*383 wbs_dat_o[11]
*384 wbs_dat_o[12]
*385 wbs_dat_o[13]
*386 wbs_dat_o[14]
*387 wbs_dat_o[15]
*388 wbs_dat_o[16]
*389 wbs_dat_o[17]
*390 wbs_dat_o[18]
*391 wbs_dat_o[19]
*392 wbs_dat_o[1]
*393 wbs_dat_o[20]
*394 wbs_dat_o[21]
*395 wbs_dat_o[22]
*396 wbs_dat_o[23]
*397 wbs_dat_o[24]
*398 wbs_dat_o[25]
*399 wbs_dat_o[26]
*400 wbs_dat_o[27]
*401 wbs_dat_o[28]
*402 wbs_dat_o[29]
*403 wbs_dat_o[2]
*404 wbs_dat_o[30]
*405 wbs_dat_o[31]
*406 wbs_dat_o[3]
*407 wbs_dat_o[4]
*408 wbs_dat_o[5]
*409 wbs_dat_o[6]
*410 wbs_dat_o[7]
*411 wbs_dat_o[8]
*412 wbs_dat_o[9]
*413 wbs_sel_i[0]
*414 wbs_sel_i[1]
*415 wbs_sel_i[2]
*416 wbs_sel_i[3]
*417 wbs_stb_i
*418 wbs_we_i
*419 wrapped_as2650

*PORTS
io_in[0] I
io_in[10] I
io_in[11] I
io_in[12] I
io_in[13] I
io_in[14] I
io_in[15] I
io_in[16] I
io_in[17] I
io_in[18] I
io_in[19] I
io_in[1] I
io_in[20] I
io_in[21] I
io_in[22] I
io_in[23] I
io_in[24] I
io_in[25] I
io_in[26] I
io_in[27] I
io_in[28] I
io_in[29] I
io_in[2] I
io_in[30] I
io_in[31] I
io_in[32] I
io_in[33] I
io_in[34] I
io_in[35] I
io_in[36] I
io_in[37] I
io_in[3] I
io_in[4] I
io_in[5] I
io_in[6] I
io_in[7] I
io_in[8] I
io_in[9] I
io_oeb[0] O
io_oeb[10] O
io_oeb[11] O
io_oeb[12] O
io_oeb[13] O
io_oeb[14] O
io_oeb[15] O
io_oeb[16] O
io_oeb[17] O
io_oeb[18] O
io_oeb[19] O
io_oeb[1] O
io_oeb[20] O
io_oeb[21] O
io_oeb[22] O
io_oeb[23] O
io_oeb[24] O
io_oeb[25] O
io_oeb[26] O
io_oeb[27] O
io_oeb[28] O
io_oeb[29] O
io_oeb[2] O
io_oeb[30] O
io_oeb[31] O
io_oeb[32] O
io_oeb[33] O
io_oeb[34] O
io_oeb[35] O
io_oeb[36] O
io_oeb[37] O
io_oeb[3] O
io_oeb[4] O
io_oeb[5] O
io_oeb[6] O
io_oeb[7] O
io_oeb[8] O
io_oeb[9] O
io_out[0] O
io_out[10] O
io_out[11] O
io_out[12] O
io_out[13] O
io_out[14] O
io_out[15] O
io_out[16] O
io_out[17] O
io_out[18] O
io_out[19] O
io_out[1] O
io_out[20] O
io_out[21] O
io_out[22] O
io_out[23] O
io_out[24] O
io_out[25] O
io_out[26] O
io_out[27] O
io_out[28] O
io_out[29] O
io_out[2] O
io_out[30] O
io_out[31] O
io_out[32] O
io_out[33] O
io_out[34] O
io_out[35] O
io_out[36] O
io_out[37] O
io_out[3] O
io_out[4] O
io_out[5] O
io_out[6] O
io_out[7] O
io_out[8] O
io_out[9] O
la_data_in[0] I
la_data_in[10] I
la_data_in[11] I
la_data_in[12] I
la_data_in[13] I
la_data_in[14] I
la_data_in[15] I
la_data_in[16] I
la_data_in[17] I
la_data_in[18] I
la_data_in[19] I
la_data_in[1] I
la_data_in[20] I
la_data_in[21] I
la_data_in[22] I
la_data_in[23] I
la_data_in[24] I
la_data_in[25] I
la_data_in[26] I
la_data_in[27] I
la_data_in[28] I
la_data_in[29] I
la_data_in[2] I
la_data_in[30] I
la_data_in[31] I
la_data_in[32] I
la_data_in[33] I
la_data_in[34] I
la_data_in[35] I
la_data_in[36] I
la_data_in[37] I
la_data_in[38] I
la_data_in[39] I
la_data_in[3] I
la_data_in[40] I
la_data_in[41] I
la_data_in[42] I
la_data_in[43] I
la_data_in[44] I
la_data_in[45] I
la_data_in[46] I
la_data_in[47] I
la_data_in[48] I
la_data_in[49] I
la_data_in[4] I
la_data_in[50] I
la_data_in[51] I
la_data_in[52] I
la_data_in[53] I
la_data_in[54] I
la_data_in[55] I
la_data_in[56] I
la_data_in[57] I
la_data_in[58] I
la_data_in[59] I
la_data_in[5] I
la_data_in[60] I
la_data_in[61] I
la_data_in[62] I
la_data_in[63] I
la_data_in[6] I
la_data_in[7] I
la_data_in[8] I
la_data_in[9] I
la_data_out[0] O
la_data_out[10] O
la_data_out[11] O
la_data_out[12] O
la_data_out[13] O
la_data_out[14] O
la_data_out[15] O
la_data_out[16] O
la_data_out[17] O
la_data_out[18] O
la_data_out[19] O
la_data_out[1] O
la_data_out[20] O
la_data_out[21] O
la_data_out[22] O
la_data_out[23] O
la_data_out[24] O
la_data_out[25] O
la_data_out[26] O
la_data_out[27] O
la_data_out[28] O
la_data_out[29] O
la_data_out[2] O
la_data_out[30] O
la_data_out[31] O
la_data_out[32] O
la_data_out[33] O
la_data_out[34] O
la_data_out[35] O
la_data_out[36] O
la_data_out[37] O
la_data_out[38] O
la_data_out[39] O
la_data_out[3] O
la_data_out[40] O
la_data_out[41] O
la_data_out[42] O
la_data_out[43] O
la_data_out[44] O
la_data_out[45] O
la_data_out[46] O
la_data_out[47] O
la_data_out[48] O
la_data_out[49] O
la_data_out[4] O
la_data_out[50] O
la_data_out[51] O
la_data_out[52] O
la_data_out[53] O
la_data_out[54] O
la_data_out[55] O
la_data_out[56] O
la_data_out[57] O
la_data_out[58] O
la_data_out[59] O
la_data_out[5] O
la_data_out[60] O
la_data_out[61] O
la_data_out[62] O
la_data_out[63] O
la_data_out[6] O
la_data_out[7] O
la_data_out[8] O
la_data_out[9] O
la_oenb[0] I
la_oenb[10] I
la_oenb[11] I
la_oenb[12] I
la_oenb[13] I
la_oenb[14] I
la_oenb[15] I
la_oenb[16] I
la_oenb[17] I
la_oenb[18] I
la_oenb[19] I
la_oenb[1] I
la_oenb[20] I
la_oenb[21] I
la_oenb[22] I
la_oenb[23] I
la_oenb[24] I
la_oenb[25] I
la_oenb[26] I
la_oenb[27] I
la_oenb[28] I
la_oenb[29] I
la_oenb[2] I
la_oenb[30] I
la_oenb[31] I
la_oenb[32] I
la_oenb[33] I
la_oenb[34] I
la_oenb[35] I
la_oenb[36] I
la_oenb[37] I
la_oenb[38] I
la_oenb[39] I
la_oenb[3] I
la_oenb[40] I
la_oenb[41] I
la_oenb[42] I
la_oenb[43] I
la_oenb[44] I
la_oenb[45] I
la_oenb[46] I
la_oenb[47] I
la_oenb[48] I
la_oenb[49] I
la_oenb[4] I
la_oenb[50] I
la_oenb[51] I
la_oenb[52] I
la_oenb[53] I
la_oenb[54] I
la_oenb[55] I
la_oenb[56] I
la_oenb[57] I
la_oenb[58] I
la_oenb[59] I
la_oenb[5] I
la_oenb[60] I
la_oenb[61] I
la_oenb[62] I
la_oenb[63] I
la_oenb[6] I
la_oenb[7] I
la_oenb[8] I
la_oenb[9] I
user_clock2 I
user_irq[0] O
user_irq[1] O
user_irq[2] O
wb_clk_i I
wb_rst_i I
wbs_ack_o O
wbs_adr_i[0] I
wbs_adr_i[10] I
wbs_adr_i[11] I
wbs_adr_i[12] I
wbs_adr_i[13] I
wbs_adr_i[14] I
wbs_adr_i[15] I
wbs_adr_i[16] I
wbs_adr_i[17] I
wbs_adr_i[18] I
wbs_adr_i[19] I
wbs_adr_i[1] I
wbs_adr_i[20] I
wbs_adr_i[21] I
wbs_adr_i[22] I
wbs_adr_i[23] I
wbs_adr_i[24] I
wbs_adr_i[25] I
wbs_adr_i[26] I
wbs_adr_i[27] I
wbs_adr_i[28] I
wbs_adr_i[29] I
wbs_adr_i[2] I
wbs_adr_i[30] I
wbs_adr_i[31] I
wbs_adr_i[3] I
wbs_adr_i[4] I
wbs_adr_i[5] I
wbs_adr_i[6] I
wbs_adr_i[7] I
wbs_adr_i[8] I
wbs_adr_i[9] I
wbs_cyc_i I
wbs_dat_i[0] I
wbs_dat_i[10] I
wbs_dat_i[11] I
wbs_dat_i[12] I
wbs_dat_i[13] I
wbs_dat_i[14] I
wbs_dat_i[15] I
wbs_dat_i[16] I
wbs_dat_i[17] I
wbs_dat_i[18] I
wbs_dat_i[19] I
wbs_dat_i[1] I
wbs_dat_i[20] I
wbs_dat_i[21] I
wbs_dat_i[22] I
wbs_dat_i[23] I
wbs_dat_i[24] I
wbs_dat_i[25] I
wbs_dat_i[26] I
wbs_dat_i[27] I
wbs_dat_i[28] I
wbs_dat_i[29] I
wbs_dat_i[2] I
wbs_dat_i[30] I
wbs_dat_i[31] I
wbs_dat_i[3] I
wbs_dat_i[4] I
wbs_dat_i[5] I
wbs_dat_i[6] I
wbs_dat_i[7] I
wbs_dat_i[8] I
wbs_dat_i[9] I
wbs_dat_o[0] O
wbs_dat_o[10] O
wbs_dat_o[11] O
wbs_dat_o[12] O
wbs_dat_o[13] O
wbs_dat_o[14] O
wbs_dat_o[15] O
wbs_dat_o[16] O
wbs_dat_o[17] O
wbs_dat_o[18] O
wbs_dat_o[19] O
wbs_dat_o[1] O
wbs_dat_o[20] O
wbs_dat_o[21] O
wbs_dat_o[22] O
wbs_dat_o[23] O
wbs_dat_o[24] O
wbs_dat_o[25] O
wbs_dat_o[26] O
wbs_dat_o[27] O
wbs_dat_o[28] O
wbs_dat_o[29] O
wbs_dat_o[2] O
wbs_dat_o[30] O
wbs_dat_o[31] O
wbs_dat_o[3] O
wbs_dat_o[4] O
wbs_dat_o[5] O
wbs_dat_o[6] O
wbs_dat_o[7] O
wbs_dat_o[8] O
wbs_dat_o[9] O
wbs_sel_i[0] I
wbs_sel_i[1] I
wbs_sel_i[2] I
wbs_sel_i[3] I
wbs_stb_i I
wbs_we_i I

*D_NET *1 0.313627
*CONN
*P io_in[0] I
*I *419:io_in[0] I *D wrapped_as2650
*CAP
1 io_in[0] 0.00466579
2 *419:io_in[0] 0.000303108
3 *1:12 0.0589441
4 *1:11 0.058641
5 *1:9 0.0932037
6 *1:7 0.0978695
7 *419:io_in[0] *66:8 0
*RES
1 io_in[0] *1:7 37.305 
2 *1:7 *1:9 731.88 
3 *1:9 *1:11 4.5 
4 *1:11 *1:12 452.43 
5 *1:12 *419:io_in[0] 11.295 
*END

*D_NET *2 0.285335
*CONN
*P io_in[10] I
*I *419:io_in[10] I *D wrapped_as2650
*CAP
1 io_in[10] 0.000363176
2 *419:io_in[10] 0.00109627
3 *2:11 0.0875313
4 *2:10 0.0864351
5 *2:8 0.0113481
6 *2:7 0.0117113
7 *419:io_in[10] *40:13 0
8 *2:8 *4:8 0.000520277
9 *2:8 *34:8 0.00482003
10 *2:8 *38:8 0.0288272
11 *2:8 *50:13 0.000310677
12 *2:8 *71:17 0.0101153
13 *2:8 *78:17 0.0127194
14 *2:8 *110:17 0.000955931
15 *2:11 *419:io_in[19] 0.00495504
16 *2:11 *419:io_in[22] 0
17 *2:11 *419:io_in[24] 0
18 *2:11 *419:io_in[26] 0.000327306
19 *2:11 *419:io_in[30] 0.00452443
20 *2:11 *23:11 0
21 *2:11 *25:15 0.0124626
22 *2:11 *35:11 0
23 *2:11 *36:19 0.00489572
24 *2:11 *56:10 0
25 *2:11 *60:10 0.00108894
26 *2:11 *73:8 0.000326566
*RES
1 io_in[10] *2:7 7.425 
2 *2:7 *2:8 177.57 
3 *2:8 *2:10 4.5 
4 *2:10 *2:11 687.87 
5 *2:11 *419:io_in[10] 11.385 
*END

*D_NET *3 0.335282
*CONN
*P io_in[11] I
*I *419:io_in[11] I *D wrapped_as2650
*CAP
1 io_in[11] 0.000427849
2 *419:io_in[11] 0.00329892
3 *3:16 0.00776806
4 *3:11 0.0919706
5 *3:10 0.0875014
6 *3:8 0.00287874
7 *3:7 0.00330659
8 *419:io_in[11] *25:14 0.00122422
9 *3:8 *4:8 0.0767954
10 *3:8 *78:17 0.0601105
*RES
1 io_in[11] *3:7 7.965 
2 *3:7 *3:8 195.39 
3 *3:8 *3:10 4.5 
4 *3:10 *3:11 681.21 
5 *3:11 *3:16 35.91 
6 *3:16 *419:io_in[11] 23.085 
*END

*D_NET *4 0.396612
*CONN
*P io_in[12] I
*I *419:io_in[12] I *D wrapped_as2650
*CAP
1 io_in[12] 0.000449407
2 *419:io_in[12] 0.00292627
3 *4:11 0.0811384
4 *4:10 0.0782121
5 *4:8 0.00497868
6 *4:7 0.00542809
7 *4:8 *6:8 0.00141679
8 *4:8 *7:11 0.112397
9 *4:8 *70:15 0.00215743
10 *4:8 *71:17 0.000310677
11 *4:8 *78:17 0.00237395
12 *4:11 *34:11 0
13 *4:11 *65:8 0.011348
14 *4:11 *90:12 0.013423
15 *4:11 *108:8 0.00273652
16 *2:8 *4:8 0.000520277
17 *3:8 *4:8 0.0767954
*RES
1 io_in[12] *4:7 8.145 
2 *4:7 *4:8 294.21 
3 *4:8 *4:10 4.5 
4 *4:10 *4:11 672.93 
5 *4:11 *419:io_in[12] 23.175 
*END

*D_NET *5 0.356125
*CONN
*P io_in[13] I
*I *419:io_in[13] I *D wrapped_as2650
*CAP
1 io_in[13] 0.000548424
2 *419:io_in[13] 5.17084e-05
3 *5:14 0.00829722
4 *5:13 0.00824551
5 *5:11 0.0854063
6 *5:10 0.0854063
7 *5:8 0.0208937
8 *5:7 0.0214421
9 *5:8 *6:8 0.125834
10 *5:11 *37:8 0
*RES
1 io_in[13] *5:7 8.685 
2 *5:7 *5:8 320.13 
3 *5:8 *5:10 4.5 
4 *5:10 *5:11 664.29 
5 *5:11 *5:13 4.5 
6 *5:13 *5:14 55.53 
7 *5:14 *419:io_in[13] 0.405 
*END

*D_NET *6 0.489798
*CONN
*P io_in[14] I
*I *419:io_in[14] I *D wrapped_as2650
*CAP
1 io_in[14] 0.000634104
2 *419:io_in[14] 0.00177201
3 *6:11 0.0764194
4 *6:10 0.0746474
5 *6:8 0.00703097
6 *6:7 0.00766508
7 *419:io_in[14] *81:7 0
8 *6:8 *7:11 0.162483
9 *6:8 *39:17 0.00478786
10 *6:8 *61:13 0.000165208
11 *6:8 *70:15 0.000515691
12 *6:11 *35:11 0
13 *6:11 *61:10 0
14 *6:11 *88:10 0.00191089
15 *6:11 *111:10 0.0245154
16 *4:8 *6:8 0.00141679
17 *5:8 *6:8 0.125834
*RES
1 io_in[14] *6:7 8.505 
2 *6:7 *6:8 429.75 
3 *6:8 *6:10 4.5 
4 *6:10 *6:11 657.81 
5 *6:11 *419:io_in[14] 15.435 
*END

*D_NET *7 0.508764
*CONN
*P io_in[15] I
*I *419:io_in[15] I *D wrapped_as2650
*CAP
1 io_in[15] 0.00279716
2 *419:io_in[15] 0.00433875
3 *7:14 0.0759208
4 *7:13 0.0715821
5 *7:11 0.0144252
6 *7:10 0.0172223
7 *419:io_in[15] *82:7 0
8 *7:14 *41:10 0.0214575
9 *7:14 *50:10 0
10 *7:14 *53:10 0.0225042
11 *7:14 *62:14 0.00363522
12 *7:14 *110:14 0
13 *4:8 *7:11 0.112397
14 *6:8 *7:11 0.162483
*RES
1 io_in[15] *7:10 31.455 
2 *7:10 *7:11 458.55 
3 *7:11 *7:13 4.5 
4 *7:13 *7:14 651.15 
5 *7:14 *419:io_in[15] 32.535 
*END

*D_NET *8 0.408647
*CONN
*P io_in[16] I
*I *419:io_in[16] I *D wrapped_as2650
*CAP
1 io_in[16] 0.000523307
2 *419:io_in[16] 0.00363636
3 *8:11 0.0649359
4 *8:10 0.0612995
5 *8:8 0.0344225
6 *8:7 0.0349459
7 *8:8 *45:14 0.208883
*RES
1 io_in[16] *8:7 8.505 
2 *8:7 *8:8 522.81 
3 *8:8 *8:10 4.5 
4 *8:10 *8:11 467.46 
5 *8:11 *419:io_in[16] 23.355 
*END

*D_NET *9 0.23629
*CONN
*P io_in[17] I
*I *419:io_in[17] I *D wrapped_as2650
*CAP
1 io_in[17] 0.00171521
2 *419:io_in[17] 0.000120653
3 *9:17 0.00887061
4 *9:16 0.00874996
5 *9:14 0.0520878
6 *9:13 0.0520878
7 *9:11 0.0552991
8 *9:10 0.0570143
9 *9:10 *83:20 0.000344984
10 *9:17 *90:13 0
*RES
1 io_in[17] *9:10 22.995 
2 *9:10 *9:11 425.79 
3 *9:11 *9:13 4.5 
4 *9:13 *9:14 403.65 
5 *9:14 *9:16 4.5 
6 *9:16 *9:17 58.23 
7 *9:17 *419:io_in[17] 0.945 
*END

*D_NET *10 0.206698
*CONN
*P io_in[18] I
*I *419:io_in[18] I *D wrapped_as2650
*CAP
1 io_in[18] 0.00146293
2 *419:io_in[18] 5.17084e-05
3 *10:17 0.0373066
4 *10:16 0.0372549
5 *10:14 0.0373508
6 *10:13 0.0373508
7 *10:11 0.0271796
8 *10:10 0.0286425
9 *10:10 *85:16 9.85843e-05
10 *10:17 *47:11 0
*RES
1 io_in[18] *10:10 19.755 
2 *10:10 *10:11 209.25 
3 *10:11 *10:13 4.5 
4 *10:13 *10:14 290.25 
5 *10:14 *10:16 4.5 
6 *10:16 *10:17 276.93 
7 *10:17 *419:io_in[18] 0.405 
*END

*D_NET *11 0.244843
*CONN
*P io_in[19] I
*I *419:io_in[19] I *D wrapped_as2650
*CAP
1 io_in[19] 0.00108382
2 *419:io_in[19] 0.00197362
3 *11:11 0.0651674
4 *11:10 0.0631938
5 *11:8 0.00690649
6 *11:7 0.00799031
7 *419:io_in[19] *35:11 0
8 *11:8 *15:8 0.00322039
9 *11:8 *86:14 0.0582097
10 *11:8 *87:20 0.0321421
11 *11:11 *419:io_in[21] 0
12 *11:11 *14:17 0
13 *2:11 *419:io_in[19] 0.00495504
*RES
1 io_in[19] *11:7 12.645 
2 *11:7 *11:8 167.31 
3 *11:8 *11:10 4.5 
4 *11:10 *11:11 477.99 
5 *11:11 *419:io_in[19] 28.395 
*END

*D_NET *12 0.510299
*CONN
*P io_in[1] I
*I *419:io_in[1] I *D wrapped_as2650
*CAP
1 io_in[1] 0.000492522
2 *419:io_in[1] 0.000187556
3 *12:11 0.0778311
4 *12:10 0.0776436
5 *12:8 0.00669445
6 *12:7 0.00718697
7 *419:io_in[1] *50:9 0
8 *12:8 *23:8 0.0452402
9 *12:8 *35:8 0.0280561
10 *12:8 *39:17 0.153335
11 *12:8 *50:13 0
12 *12:11 *419:io_in[35] 0.00994228
13 *12:11 *25:9 0
14 *12:11 *26:19 0.0928307
15 *12:11 *32:11 0.00679423
16 *12:11 *33:19 0.00406459
17 *12:11 *106:10 0
*RES
1 io_in[1] *12:7 8.505 
2 *12:7 *12:8 389.97 
3 *12:8 *12:10 4.5 
4 *12:10 *12:11 754.83 
5 *12:11 *419:io_in[1] 5.625 
*END

*D_NET *13 0.151228
*CONN
*P io_in[20] I
*I *419:io_in[20] I *D wrapped_as2650
*CAP
1 io_in[20] 0.0396229
2 *419:io_in[20] 0.00376729
3 *13:11 0.0260231
4 *13:10 0.0222558
5 *13:8 0.00832749
6 *13:7 0.00832749
7 *13:5 0.0396229
8 *13:8 *14:14 0.00328093
9 *13:11 *87:9 0
*RES
1 io_in[20] *13:5 305.325 
2 *13:5 *13:7 4.5 
3 *13:7 *13:8 67.59 
4 *13:8 *13:10 4.5 
5 *13:10 *13:11 166.14 
6 *13:11 *419:io_in[20] 23.895 
*END

*D_NET *14 0.148099
*CONN
*P io_in[21] I
*I *419:io_in[21] I *D wrapped_as2650
*CAP
1 io_in[21] 0.00135201
2 *419:io_in[21] 0.00369947
3 *14:17 0.0259915
4 *14:16 0.022292
5 *14:14 0.00643729
6 *14:11 0.044938
7 *14:10 0.0398527
8 *419:io_in[21] *89:10 0
9 *14:10 *15:8 0.000254726
10 *14:11 *45:11 0
11 *11:11 *419:io_in[21] 0
12 *11:11 *14:17 0
13 *13:8 *14:14 0.00328093
*RES
1 io_in[21] *14:10 19.935 
2 *14:10 *14:11 296.37 
3 *14:11 *14:14 49.23 
4 *14:14 *14:16 4.5 
5 *14:16 *14:17 166.32 
6 *14:17 *419:io_in[21] 23.355 
*END

*D_NET *15 0.19008
*CONN
*P io_in[22] I
*I *419:io_in[22] I *D wrapped_as2650
*CAP
1 io_in[22] 0.00107486
2 *419:io_in[22] 0.00149021
3 *15:11 0.0644786
4 *15:10 0.0629884
5 *15:8 0.0165299
6 *15:7 0.0176048
7 *419:io_in[22] *35:11 0.000968721
8 *419:io_in[22] *53:9 0
9 *15:8 *90:16 0.0214698
10 *15:11 *90:9 0
11 *2:11 *419:io_in[22] 0
12 *11:8 *15:8 0.00322039
13 *14:10 *15:8 0.000254726
*RES
1 io_in[22] *15:7 12.825 
2 *15:7 *15:8 159.75 
3 *15:8 *15:10 4.5 
4 *15:10 *15:11 476.73 
5 *15:11 *419:io_in[22] 19.575 
*END

*D_NET *16 0.203289
*CONN
*P io_in[23] I
*I *419:io_in[23] I *D wrapped_as2650
*CAP
1 io_in[23] 0.000345489
2 *419:io_in[23] 5.17084e-05
3 *16:19 0.00923822
4 *16:18 0.00918651
5 *16:16 0.0358892
6 *16:15 0.0358892
7 *16:13 0.0561715
8 *16:11 0.056517
*RES
1 io_in[23] *16:11 3.195 
2 *16:11 *16:13 432.27 
3 *16:13 *16:15 4.5 
4 *16:15 *16:16 278.19 
5 *16:16 *16:18 4.5 
6 *16:18 *16:19 60.93 
7 *16:19 *419:io_in[23] 0.405 
*END

*D_NET *17 0.247961
*CONN
*P io_in[24] I
*I *419:io_in[24] I *D wrapped_as2650
*CAP
1 io_in[24] 0.000201168
2 *419:io_in[24] 0.0021202
3 *17:16 0.0644185
4 *17:15 0.0622983
5 *17:13 0.056934
6 *17:11 0.0571351
7 *419:io_in[24] *35:11 0.00485389
8 *419:io_in[24] *55:13 0
9 *17:16 *53:9 0
10 *17:16 *91:9 0
11 *2:11 *419:io_in[24] 0
*RES
1 io_in[24] *17:11 1.935 
2 *17:11 *17:13 359.91 
3 *17:13 *17:15 4.5 
4 *17:15 *17:16 470.07 
5 *17:16 *419:io_in[24] 29.295 
*END

*D_NET *18 0.210316
*CONN
*P io_in[25] I
*I *419:io_in[25] I *D wrapped_as2650
*CAP
1 io_in[25] 0.000125876
2 *419:io_in[25] 0.00375409
3 *18:22 0.0356935
4 *18:21 0.0319394
5 *18:19 0.0414899
6 *18:18 0.0414899
7 *18:16 0.0191921
8 *18:15 0.0191921
9 *18:13 0.00865678
10 *18:11 0.00878266
11 *18:22 *19:12 0
*RES
1 io_in[25] *18:11 1.395 
2 *18:11 *18:13 54.81 
3 *18:13 *18:15 4.5 
4 *18:15 *18:16 147.33 
5 *18:16 *18:18 4.5 
6 *18:18 *18:19 322.83 
7 *18:19 *18:21 4.5 
8 *18:21 *18:22 241.74 
9 *18:22 *419:io_in[25] 23.895 
*END

*D_NET *19 0.194207
*CONN
*P io_in[26] I
*I *419:io_in[26] I *D wrapped_as2650
*CAP
1 io_in[26] 0.00177706
2 *419:io_in[26] 0.0021691
3 *19:12 0.045939
4 *19:11 0.0437699
5 *19:9 0.0465145
6 *19:7 0.0482916
7 *419:io_in[26] *35:11 0.000894262
8 *419:io_in[26] *56:10 0.00234692
9 *419:io_in[26] *57:9 0
10 *19:12 *93:13 0.00217791
11 *2:11 *419:io_in[26] 0.000327306
12 *18:22 *19:12 0
*RES
1 io_in[26] *19:7 13.185 
2 *19:7 *19:9 363.24 
3 *19:9 *19:11 4.5 
4 *19:11 *19:12 335.25 
5 *19:12 *419:io_in[26] 28.035 
*END

*D_NET *20 0.233574
*CONN
*P io_in[27] I
*I *419:io_in[27] I *D wrapped_as2650
*CAP
1 io_in[27] 0.00035683
2 *419:io_in[27] 0.00342112
3 *20:19 0.0188053
4 *20:18 0.0153841
5 *20:16 0.03296
6 *20:15 0.03296
7 *20:13 0.0225705
8 *20:11 0.0229273
9 *419:io_in[27] *96:13 0
10 *20:19 *21:19 0.084189
11 *20:19 *39:14 0
12 *20:19 *104:14 0
*RES
1 io_in[27] *20:11 3.015 
2 *20:11 *20:13 176.31 
3 *20:13 *20:15 4.5 
4 *20:15 *20:16 252.45 
5 *20:16 *20:18 4.5 
6 *20:18 *20:19 217.53 
7 *20:19 *419:io_in[27] 26.055 
*END

*D_NET *21 0.218237
*CONN
*P io_in[28] I
*I *419:io_in[28] I *D wrapped_as2650
*CAP
1 io_in[28] 0.000249598
2 *419:io_in[28] 0.0033292
3 *21:19 0.0163317
4 *21:18 0.0130025
5 *21:16 0.024213
6 *21:15 0.024213
7 *21:13 0.0233361
8 *21:11 0.0235857
9 *419:io_in[28] *22:16 0
10 *419:io_in[28] *60:11 0
11 *21:19 *419:io_in[29] 0.000105554
12 *21:19 *39:14 0
13 *21:19 *96:12 0.000303862
14 *21:19 *109:10 0.00537749
15 *20:19 *21:19 0.084189
*RES
1 io_in[28] *21:11 2.475 
2 *21:11 *21:13 181.71 
3 *21:13 *21:15 4.5 
4 *21:15 *21:16 185.13 
5 *21:16 *21:18 4.5 
6 *21:18 *21:19 220.23 
7 *21:19 *419:io_in[28] 25.335 
*END

*D_NET *22 0.146586
*CONN
*P io_in[29] I
*I *419:io_in[29] I *D wrapped_as2650
*CAP
1 io_in[29] 0.000177869
2 *419:io_in[29] 0.00386448
3 *22:16 0.0198022
4 *22:15 0.0159377
5 *22:13 0.0516312
6 *22:11 0.051809
7 *419:io_in[29] *97:7 0
8 *419:io_in[29] *109:10 0.00325782
9 *419:io_in[28] *22:16 0
10 *21:19 *419:io_in[29] 0.000105554
*RES
1 io_in[29] *22:11 1.935 
2 *22:11 *22:13 400.41 
3 *22:13 *22:15 4.5 
4 *22:15 *22:16 118.53 
5 *22:16 *419:io_in[29] 38.025 
*END

*D_NET *23 0.4862
*CONN
*P io_in[2] I
*I *419:io_in[2] I *D wrapped_as2650
*CAP
1 io_in[2] 0.000466564
2 *419:io_in[2] 0.000842345
3 *23:11 0.0847265
4 *23:10 0.0838841
5 *23:8 0.00531167
6 *23:7 0.00577823
7 *419:io_in[2] *61:9 0
8 *23:8 *35:8 0.0298126
9 *23:8 *50:13 0
10 *23:8 *61:13 0.113318
11 *23:11 *47:10 0.0012036
12 *23:11 *48:8 0.00337041
13 *23:11 *49:8 0.00519602
14 *23:11 *52:8 0.0047104
15 *23:11 *73:8 0.10022
16 *23:11 *81:8 0
17 *23:11 *82:8 0
18 *23:11 *89:10 0.00212008
19 *2:11 *23:11 0
20 *12:8 *23:8 0.0452402
*RES
1 io_in[2] *23:7 8.145 
2 *23:7 *23:8 330.75 
3 *23:8 *23:10 4.5 
4 *23:10 *23:11 747.63 
5 *23:11 *419:io_in[2] 10.125 
*END

*D_NET *24 0.131799
*CONN
*P io_in[30] I
*I *419:io_in[30] I *D wrapped_as2650
*CAP
1 io_in[30] 0.000113196
2 *419:io_in[30] 0.00207933
3 *24:16 0.0109998
4 *24:15 0.00892046
5 *24:13 0.0523546
6 *24:11 0.0524678
7 *419:io_in[30] *35:11 0
8 *419:io_in[30] *62:13 0
9 *24:16 *59:11 0.000338963
10 *24:16 *97:7 0
11 *2:11 *419:io_in[30] 0.00452443
*RES
1 io_in[30] *24:11 1.395 
2 *24:11 *24:13 405.81 
3 *24:13 *24:15 4.5 
4 *24:15 *24:16 63.45 
5 *24:16 *419:io_in[30] 27.675 
*END

*D_NET *25 0.189382
*CONN
*P io_in[31] I
*I *419:io_in[31] I *D wrapped_as2650
*CAP
1 io_in[31] 0.00177706
2 *419:io_in[31] 0.00103569
3 *25:15 0.00591551
4 *25:14 0.00519326
5 *25:9 0.0274492
6 *25:7 0.0289128
7 *25:9 *101:8 0.0412273
8 *25:15 *36:19 0.0605384
9 *25:15 *60:10 0.00364625
10 *419:io_in[11] *25:14 0.00122422
11 *2:11 *25:15 0.0124626
12 *12:11 *25:9 0
*RES
1 io_in[31] *25:7 13.185 
2 *25:7 *25:9 259.38 
3 *25:9 *25:14 12.33 
4 *25:14 *25:15 152.73 
5 *25:15 *419:io_in[31] 10.665 
*END

*D_NET *26 0.253724
*CONN
*P io_in[32] I
*I *419:io_in[32] I *D wrapped_as2650
*CAP
1 io_in[32] 0.000323383
2 *419:io_in[32] 0.000180566
3 *26:19 0.00334541
4 *26:18 0.00316484
5 *26:16 0.00885963
6 *26:15 0.00885963
7 *26:13 0.0233875
8 *26:11 0.0237109
9 *419:io_in[32] *64:9 0
10 *26:19 *32:11 0.00135122
11 *26:19 *33:19 0.0838545
12 *26:19 *66:8 0.00385538
13 *12:11 *26:19 0.0928307
*RES
1 io_in[32] *26:11 3.015 
2 *26:11 *26:13 181.71 
3 *26:13 *26:15 4.5 
4 *26:15 *26:16 68.31 
5 *26:16 *26:18 4.5 
6 *26:18 *26:19 250.83 
7 *26:19 *419:io_in[32] 5.445 
*END

*D_NET *27 0.221749
*CONN
*P io_in[33] I
*I *419:io_in[33] I *D wrapped_as2650
*CAP
1 io_in[33] 0.000242542
2 *419:io_in[33] 0.00190135
3 *27:19 0.0203158
4 *27:18 0.0184144
5 *27:16 0.0191317
6 *27:15 0.0191317
7 *27:13 0.0225877
8 *27:11 0.0228302
9 *27:19 *67:10 0.00616719
10 *27:19 *99:10 0.0910263
*RES
1 io_in[33] *27:11 2.475 
2 *27:11 *27:13 176.31 
3 *27:13 *27:15 4.5 
4 *27:15 *27:16 146.61 
5 *27:16 *27:18 4.5 
6 *27:18 *27:19 263.43 
7 *27:19 *419:io_in[33] 16.695 
*END

*D_NET *28 0.302009
*CONN
*P io_in[34] I
*I *419:io_in[34] I *D wrapped_as2650
*CAP
1 io_in[34] 0.000177869
2 *419:io_in[34] 0.00234304
3 *28:19 0.024077
4 *28:18 0.021734
5 *28:16 0.0281901
6 *28:15 0.0281901
7 *28:13 0.00643563
8 *28:11 0.00661349
9 *419:io_in[34] *103:9 0.000199885
10 *28:19 *77:10 0.100044
11 *28:19 *103:10 0.00529183
12 *28:19 *112:10 0.0787121
*RES
1 io_in[34] *28:11 1.935 
2 *28:11 *28:13 49.41 
3 *28:13 *28:15 4.5 
4 *28:15 *28:16 216.27 
5 *28:16 *28:18 4.5 
6 *28:18 *28:19 397.17 
7 *28:19 *419:io_in[34] 19.575 
*END

*D_NET *29 0.213425
*CONN
*P io_in[35] I
*I *419:io_in[35] I *D wrapped_as2650
*CAP
1 io_in[35] 0.000113196
2 *419:io_in[35] 0.000335608
3 *29:16 0.0354472
4 *29:15 0.0351116
5 *29:13 0.0613698
6 *29:11 0.061483
7 *419:io_in[35] *32:11 0.000263605
8 *419:io_in[35] *33:19 0.00935909
9 *419:io_in[35] *67:9 0
10 *29:16 *33:16 0
11 *12:11 *419:io_in[35] 0.00994228
*RES
1 io_in[35] *29:11 1.395 
2 *29:11 *29:13 480.15 
3 *29:13 *29:15 4.5 
4 *29:15 *29:16 270.81 
5 *29:16 *419:io_in[35] 35.055 
*END

*D_NET *30 0.220521
*CONN
*P io_in[36] I
*I *419:io_in[36] I *D wrapped_as2650
*CAP
1 io_in[36] 0.00177706
2 *419:io_in[36] 0.00173757
3 *30:12 0.0454469
4 *30:11 0.0437093
5 *30:9 0.0599221
6 *30:7 0.0616991
7 *419:io_in[36] *419:io_in[37] 0.00501204
8 *419:io_in[36] *32:11 0.00111859
9 *419:io_in[36] *68:9 9.84971e-05
*RES
1 io_in[36] *30:7 13.185 
2 *30:7 *30:9 469.98 
3 *30:9 *30:11 4.5 
4 *30:11 *30:12 337.59 
5 *30:12 *419:io_in[36] 29.565 
*END

*D_NET *31 0.242048
*CONN
*P io_in[37] I
*I *419:io_in[37] I *D wrapped_as2650
*CAP
1 io_in[37] 0.000323383
2 *419:io_in[37] 0.000335899
3 *31:16 0.0531636
4 *31:15 0.0528277
5 *31:13 0.0619784
6 *31:11 0.0623018
7 *419:io_in[37] *32:11 0.00610552
8 *419:io_in[36] *419:io_in[37] 0.00501204
*RES
1 io_in[37] *31:11 3.015 
2 *31:11 *31:13 485.55 
3 *31:13 *31:15 4.5 
4 *31:15 *31:16 407.97 
5 *31:16 *419:io_in[37] 24.795 
*END

*D_NET *32 0.401644
*CONN
*P io_in[3] I
*I *419:io_in[3] I *D wrapped_as2650
*CAP
1 io_in[3] 0.0536548
2 *419:io_in[3] 0.000108892